read_data       P8-15_D3_6.xyz
  orthogonal box = (-58.1562 -58.1562 -58.1562) to (58.1562 58.1562 58.1562)
  reading atoms ...
  12288 atoms
change_box 	all triclinic
  triclinic box = (-58.1562 -58.1562 -58.1562) to (58.1562 58.1562 58.1562) with tilt (0 0 0)

include potential.mod
# NOTE: This script can be modified for different pair styles
# See in.elastic for more info.

# Choose potential
pair_style     rebo
pair_coeff     * * CH.airebo  C
Reading potential file CH.airebo with DATE: 2011-10-25

#pair_style     lcbop
#pair_coeff     C.lcbop
#pair_style     tersoff
#pair_coeff     BNC.tersoff

# Setup neighbor style
neighbor 1.0 nsq
neigh_modify once no every 1 delay 0 check yes

# Setup minimization style
min_style	     cg
min_modify	     dmax 0.01 line quadratic

# Setup output
thermo		500
thermo_style custom step temp pe press pxx pyy pzz pxy pxz pyz lx ly lz vol
thermo_modify norm no

# Output
dump            1 all xtc 100 traj.xtc
dump            2 all xyz 2000 relaxed.xyz
#dump            4 all atom 10 dump.atom

# Compute initial state
fix 3 all box/relax  aniso 0.0
minimize 0 1e-10 10000000 10000000
  1 neighbor list requests
  update every 1 steps, delay 0 steps, check yes
Step Temp PotEng Press Pxx Pyy Pzz Pxy Pxz Pyz Lx Ly Lz Volume
0            0   -82365.382     21239.83     21239.83    21239.825    21239.835 -0.00066058872 0.00096521762 1.9611262e-05    116.31242    116.31242    116.31242    1573541.8
Averages over the last 5031 of 10062 rows, steps 2515500 to 5030239:
Temp PotEng Press Pxx Pyy Pzz Pxy Pxz Pyz Lx Ly Lz Volume
0 -94979.3 -7.84192e-11 -6.76001e-11 -9.58807e-11 -7.17768e-11 -3.47042e-10 -1.09701e-10 -4.27469e-10 110.001 110.001 110.001 1.33103e+06
Loop time of 36626.8 on 16 procs (16 MPI x 1 OpenMP) for 5030239 steps with 12288 atoms

Minimization stats:
  Stopping criterion = max force evaluations
  Energy initial, next-to-last, final =
  Force two-norm initial, final = 36478.7 6.24968e-09
  Force max component initial, final = 20860.2 5.40525e-09
  Final line search alpha, max atom move = 1 5.40525e-09
  Iterations, force evaluations = 5030239 10000000

Pair  time (%) = 33822.3 (92.3431)
Neigh time (%) = 0.589369 (0.00160912)
Comm  time (%) = 1960.12 (5.3516)
Outpt time (%) = 28.3913 (0.0775153)
Other time (%) = 815.375 (2.22617)

#dump rel all xyz 10 relaxed-*.xyz
#dump 3 all xyz 10 relaxed.xyz
#dump 3 all atom 10 dump.atom

variable tmp equal pxx
variable pxx0 equal -3.47323600014093e-09
variable tmp equal pyy
variable pyy0 equal -2.11726880520006e-10
variable tmp equal pzz
variable pzz0 equal -6.15330230855154e-09
variable tmp equal pyz
variable pyz0 equal -3.4708497428327e-10
variable tmp equal pxz
variable pxz0 equal -6.54082536367095e-11
variable tmp equal pxy
variable pxy0 equal -1.2721146263035e-10

variable tmp equal lx
variable lx0 equal 110.000796794691
variable tmp equal ly
variable ly0 equal 110.000796794691
variable tmp equal lz
variable lz0 equal 110.000796794694

# These formulas define the derivatives w.r.t. strain components
# Constants uses $, variables use v_
variable d1 equal -(v_pxx1--3.47323600014093e-09)/(v_delta/v_len0)*0.0001
variable d2 equal -(v_pyy1--2.11726880520006e-10)/(v_delta/v_len0)*0.0001
variable d3 equal -(v_pzz1--6.15330230855154e-09)/(v_delta/v_len0)*0.0001
variable d4 equal -(v_pyz1--3.4708497428327e-10)/(v_delta/v_len0)*0.0001
variable d5 equal -(v_pxz1--6.54082536367095e-11)/(v_delta/v_len0)*0.0001
variable d6 equal -(v_pxy1--1.2721146263035e-10)/(v_delta/v_len0)*0.0001

displace_atoms all random 1e-05 1e-05 1e-05 87287 units box

# Write restart
unfix 3
write_restart restart.equil

# uxx Perturbation

variable dir equal 1
include displace.mod
# NOTE: This script should not need to be
# modified. See in.elastic for more info.
#
# Find which reference length to use

variable len0 equal 110.000796794691

# Reset box and simulation parameters

clear
box tilt large
read_restart restart.equil
  triclinic box = (-55.0004 -55.0004 -55.0004) to (55.0004 55.0004 55.0004) with tilt (0 0 0)
  12288 atoms
include potential.mod
# NOTE: This script can be modified for different pair styles
# See in.elastic for more info.

# Choose potential
pair_style     rebo
pair_coeff     * * CH.airebo  C
Reading potential file CH.airebo with DATE: 2011-10-25

#pair_style     lcbop
#pair_coeff     C.lcbop
#pair_style     tersoff
#pair_coeff     BNC.tersoff

# Setup neighbor style
neighbor 1.0 nsq
neigh_modify once no every 1 delay 0 check yes

# Setup minimization style
min_style	     cg
min_modify	     dmax 0.01 line quadratic

# Setup output
thermo		500
thermo_style custom step temp pe press pxx pyy pzz pxy pxz pyz lx ly lz vol
thermo_modify norm no

# Output
dump            1 all xtc 100 traj.xtc
dump            2 all xyz 2000 relaxed.xyz
#dump            4 all atom 10 dump.atom

# Negative deformation

variable delta equal -1.0e-5*110.000796794691
variable deltaxy equal -1.0e-5*xy
variable deltaxz equal -1.0e-5*xz
variable deltayz equal -1.0e-5*yz
change_box all x delta 0 -0.00110000796794691 xy delta -0 xz delta -0 remap units box
  triclinic box = (-55.0004 -55.0004 -55.0004) to (54.9993 55.0004 55.0004) with tilt (0 0 0)
  triclinic box = (-55.0004 -55.0004 -55.0004) to (54.9993 55.0004 55.0004) with tilt (0 0 0)
  triclinic box = (-55.0004 -55.0004 -55.0004) to (54.9993 55.0004 55.0004) with tilt (0 0 0)

# Relax atoms positions

minimize 0 1e-10 10000000 10000000
  1 neighbor list requests
  update every 1 steps, delay 0 steps, check yes
Step Temp PotEng Press Pxx Pyy Pzz Pxy Pxz Pyz Lx Ly Lz Volume
5030239            0   -94979.277    2.2443647    4.3744479    1.1852301    1.1734162 -0.033090164 0.0075528023  0.009068584     109.9997     110.0008     110.0008    1331015.6
Averages over the last 4 of 8 rows, steps 5032000 to 5033120:
Temp PotEng Press Pxx Pyy Pzz Pxy Pxz Pyz Lx Ly Lz Volume
0 -94979.3 0.132769 0.382579 0.00786175 0.00786559 4.81831e-08 -7.65132e-08 8.01882e-08 110 110.001 110.001 1.33102e+06
Loop time of 20.4455 on 16 procs (16 MPI x 1 OpenMP) for 2881 steps with 12288 atoms

Minimization stats:
  Stopping criterion = force tolerance
  Energy initial, next-to-last, final =
  Force two-norm initial, final = 0.0880118 9.98225e-11
  Force max component initial, final = 0.00202495 3.51787e-12
  Final line search alpha, max atom move = 1 3.51787e-12
  Iterations, force evaluations = 2881 5762

Pair  time (%) = 19.1479 (93.6534)
Neigh time (%) = 0 (0)
Comm  time (%) = 1.0388 (5.08081)
Outpt time (%) = 0.0163112 (0.0797789)
Other time (%) = 0.242477 (1.18597)

# Obtain new stress tensor

variable tmp equal pxx
variable pxx1 equal 0.382579354514909
variable tmp equal pyy
variable pyy1 equal 0.00786166057626309
variable tmp equal pzz
variable pzz1 equal 0.00786549679366935
variable tmp equal pxy
variable pxy1 equal -1.75606773495672e-09
variable tmp equal pxz
variable pxz1 equal 2.51963066830301e-09
variable tmp equal pyz
variable pyz1 equal -5.1119873179584e-10

# Compute elastic constant from pressure tensor

variable C1neg equal 3.82579357988145
variable C2neg equal 0.0786166078798997
variable C3neg equal 0.0786550294697166
variable C4neg equal -1.6411375751257e-09
variable C5neg equal 2.58503892193972e-08
variable C6neg equal -1.62885627232637e-08

# Reset box and simulation parameters

clear
box tilt large
read_restart restart.equil
  triclinic box = (-55.0004 -55.0004 -55.0004) to (55.0004 55.0004 55.0004) with tilt (0 0 0)
  12288 atoms
include potential.mod
# NOTE: This script can be modified for different pair styles
# See in.elastic for more info.

# Choose potential
pair_style     rebo
pair_coeff     * * CH.airebo  C
Reading potential file CH.airebo with DATE: 2011-10-25

#pair_style     lcbop
#pair_coeff     C.lcbop
#pair_style     tersoff
#pair_coeff     BNC.tersoff

# Setup neighbor style
neighbor 1.0 nsq
neigh_modify once no every 1 delay 0 check yes

# Setup minimization style
min_style	     cg
min_modify	     dmax 0.01 line quadratic

# Setup output
thermo		500
thermo_style custom step temp pe press pxx pyy pzz pxy pxz pyz lx ly lz vol
thermo_modify norm no

# Output
dump            1 all xtc 100 traj.xtc
dump            2 all xyz 2000 relaxed.xyz
#dump            4 all atom 10 dump.atom

# Positive deformation

variable delta equal 1.0e-5*110.000796794691
variable deltaxy equal 1.0e-5*xy
variable deltaxz equal 1.0e-5*xz
variable deltayz equal 1.0e-5*yz
change_box all x delta 0 0.00110000796794691 xy delta 0 xz delta 0 remap units box
  triclinic box = (-55.0004 -55.0004 -55.0004) to (55.0015 55.0004 55.0004) with tilt (0 0 0)
  triclinic box = (-55.0004 -55.0004 -55.0004) to (55.0015 55.0004 55.0004) with tilt (0 0 0)
  triclinic box = (-55.0004 -55.0004 -55.0004) to (55.0015 55.0004 55.0004) with tilt (0 0 0)

# Relax atoms positions

minimize 0 1e-10 10000000 10000000
  1 neighbor list requests
  update every 1 steps, delay 0 steps, check yes
Step Temp PotEng Press Pxx Pyy Pzz Pxy Pxz Pyz Lx Ly Lz Volume
5030239            0   -94979.277    -2.248747   -4.3441676   -1.1951291   -1.2069443 -0.033086797 0.0075512633 0.0090672126     110.0019     110.0008     110.0008    1331042.2
Averages over the last 4 of 8 rows, steps 5032000 to 5033129:
Temp PotEng Press Pxx Pyy Pzz Pxy Pxz Pyz Lx Ly Lz Volume
0 -94979.3 -0.132816 -0.382655 -0.00789837 -0.00789453 4.61886e-08 -7.41048e-08 8.47425e-08 110.002 110.001 110.001 1.33104e+06
Loop time of 20.5449 on 16 procs (16 MPI x 1 OpenMP) for 2890 steps with 12288 atoms

Minimization stats:
  Stopping criterion = force tolerance
  Energy initial, next-to-last, final =
  Force two-norm initial, final = 0.0875807 9.92173e-11
  Force max component initial, final = 0.00205717 3.1999e-12
  Final line search alpha, max atom move = 1 3.1999e-12
  Iterations, force evaluations = 2890 5780

Pair  time (%) = 19.1777 (93.3451)
Neigh time (%) = 0 (0)
Comm  time (%) = 1.10995 (5.40255)
Outpt time (%) = 0.016176 (0.0787348)
Other time (%) = 0.241115 (1.1736)

# Obtain new stress tensor

variable tmp equal pe
variable e1 equal -94979.2766983008
variable tmp equal press
variable p1 equal -0.132815927896582
variable tmp equal pxx
variable pxx1 equal -0.382654682696397
variable tmp equal pyy
variable pyy1 equal -0.00789846887042497
variable tmp equal pzz
variable pzz1 equal -0.00789463212292483
variable tmp equal pxy
variable pxy1 equal -1.81751019821507e-09
variable tmp equal pxz
variable pxz1 equal 3.59533964348317e-09
variable tmp equal pyz
variable pyz1 equal 2.12915314152903e-09

# Compute elastic constant from pressure tensor

variable C1pos equal 3.82654679223161
variable C2pos equal 0.0789846865869809
variable C3pos equal 0.0789462596962252
variable C4pos equal -2.4762381158123e-08
variable C5pos equal -3.66074789711988e-08
variable C6pos equal 1.69029873558472e-08

# Combine positive and negative

variable C11 equal 0.5*(3.82579357988145+3.82654679223161)
variable C21 equal 0.5*(0.0786166078798997+0.0789846865869809)
variable C31 equal 0.5*(0.0786550294697166+0.0789462596962252)
variable C41 equal 0.5*(-1.6411375751257e-09+-2.4762381158123e-08)
variable C51 equal 0.5*(2.58503892193972e-08+-3.66074789711988e-08)
variable C61 equal 0.5*(-1.62885627232637e-08+1.69029873558472e-08)

# Delete dir to make sure it is not reused

variable dir delete

# uyy Perturbation

variable dir equal 2
include displace.mod
# NOTE: This script should not need to be
# modified. See in.elastic for more info.
#
# Find which reference length to use

variable len0 equal 110.000796794691

# Reset box and simulation parameters

clear
box tilt large
read_restart restart.equil
  triclinic box = (-55.0004 -55.0004 -55.0004) to (55.0004 55.0004 55.0004) with tilt (0 0 0)
  12288 atoms
include potential.mod
# NOTE: This script can be modified for different pair styles
# See in.elastic for more info.

# Choose potential
pair_style     rebo
pair_coeff     * * CH.airebo  C
Reading potential file CH.airebo with DATE: 2011-10-25

#pair_style     lcbop
#pair_coeff     C.lcbop
#pair_style     tersoff
#pair_coeff     BNC.tersoff

# Setup neighbor style
neighbor 1.0 nsq
neigh_modify once no every 1 delay 0 check yes

# Setup minimization style
min_style	     cg
min_modify	     dmax 0.01 line quadratic

# Setup output
thermo		500
thermo_style custom step temp pe press pxx pyy pzz pxy pxz pyz lx ly lz vol
thermo_modify norm no

# Output
dump            1 all xtc 100 traj.xtc
dump            2 all xyz 2000 relaxed.xyz
#dump            4 all atom 10 dump.atom

# Negative deformation

variable delta equal -1.0e-5*110.000796794691
variable deltaxy equal -1.0e-5*xy
variable deltaxz equal -1.0e-5*xz
variable deltayz equal -1.0e-5*yz
change_box all y delta 0 -0.00110000796794691 yz delta -0 remap units box
  triclinic box = (-55.0004 -55.0004 -55.0004) to (55.0004 54.9993 55.0004) with tilt (0 0 0)
  triclinic box = (-55.0004 -55.0004 -55.0004) to (55.0004 54.9993 55.0004) with tilt (0 0 0)

# Relax atoms positions

minimize 0 1e-10 10000000 10000000
  1 neighbor list requests
  update every 1 steps, delay 0 steps, check yes
Step Temp PotEng Press Pxx Pyy Pzz Pxy Pxz Pyz Lx Ly Lz Volume
5030239            0   -94979.277    2.2443641    1.2052418    4.3544339    1.1734165 -0.033089313 0.0075520878 0.0090674862     110.0008     109.9997     110.0008    1331015.6
Averages over the last 4 of 8 rows, steps 5032000 to 5033120:
Temp PotEng Press Pxx Pyy Pzz Pxy Pxz Pyz Lx Ly Lz Volume
0 -94979.3 0.132769 0.0078656 0.382579 0.00786175 4.62929e-08 -7.44698e-08 8.41128e-08 110.001 110 110.001 1.33102e+06
Loop time of 20.3552 on 16 procs (16 MPI x 1 OpenMP) for 2881 steps with 12288 atoms

Minimization stats:
  Stopping criterion = force tolerance
  Energy initial, next-to-last, final =
  Force two-norm initial, final = 0.0877389 9.96284e-11
  Force max component initial, final = 0.00201254 2.78555e-12
  Final line search alpha, max atom move = 1 2.78555e-12
  Iterations, force evaluations = 2881 5762

Pair  time (%) = 19.1389 (94.0242)
Neigh time (%) = 0 (0)
Comm  time (%) = 0.960332 (4.71786)
Outpt time (%) = 0.0161288 (0.0792364)
Other time (%) = 0.239922 (1.17867)

# Obtain new stress tensor

variable tmp equal pxx
variable pxx1 equal 0.00786549567635092
variable tmp equal pyy
variable pyy1 equal 0.382579352718321
variable tmp equal pzz
variable pzz1 equal 0.0078616581428208
variable tmp equal pxy
variable pxy1 equal -1.71275544875556e-09
variable tmp equal pxz
variable pxz1 equal 3.40343993492381e-09
variable tmp equal pyz
variable pyz1 equal 1.52592844961751e-09

# Compute elastic constant from pressure tensor

variable C1neg equal 0.0786549914958692
variable C2neg equal 3.82579352930048
variable C3neg equal 0.0786166429612311
variable C4neg equal 1.87301342390078e-08
variable C5neg equal 3.46884818856052e-08
variable C6neg equal -1.58554398612521e-08

# Reset box and simulation parameters

clear
box tilt large
read_restart restart.equil
  triclinic box = (-55.0004 -55.0004 -55.0004) to (55.0004 55.0004 55.0004) with tilt (0 0 0)
  12288 atoms
include potential.mod
# NOTE: This script can be modified for different pair styles
# See in.elastic for more info.

# Choose potential
pair_style     rebo
pair_coeff     * * CH.airebo  C
Reading potential file CH.airebo with DATE: 2011-10-25

#pair_style     lcbop
#pair_coeff     C.lcbop
#pair_style     tersoff
#pair_coeff     BNC.tersoff

# Setup neighbor style
neighbor 1.0 nsq
neigh_modify once no every 1 delay 0 check yes

# Setup minimization style
min_style	     cg
min_modify	     dmax 0.01 line quadratic

# Setup output
thermo		500
thermo_style custom step temp pe press pxx pyy pzz pxy pxz pyz lx ly lz vol
thermo_modify norm no

# Output
dump            1 all xtc 100 traj.xtc
dump            2 all xyz 2000 relaxed.xyz
#dump            4 all atom 10 dump.atom

# Positive deformation

variable delta equal 1.0e-5*110.000796794691
variable deltaxy equal 1.0e-5*xy
variable deltaxz equal 1.0e-5*xz
variable deltayz equal 1.0e-5*yz
change_box all y delta 0 0.00110000796794691 yz delta 0 remap units box
  triclinic box = (-55.0004 -55.0004 -55.0004) to (55.0004 55.0015 55.0004) with tilt (0 0 0)
  triclinic box = (-55.0004 -55.0004 -55.0004) to (55.0004 55.0015 55.0004) with tilt (0 0 0)

# Relax atoms positions

minimize 0 1e-10 10000000 10000000
  1 neighbor list requests
  update every 1 steps, delay 0 steps, check yes
Step Temp PotEng Press Pxx Pyy Pzz Pxy Pxz Pyz Lx Ly Lz Volume
5030239            0   -94979.277   -2.2487463   -1.1751178   -4.3641779   -1.2069434  -0.03308765  0.007551983 0.0090683107     110.0008     110.0019     110.0008    1331042.2
Averages over the last 4 of 8 rows, steps 5032000 to 5033117:
Temp PotEng Press Pxx Pyy Pzz Pxy Pxz Pyz Lx Ly Lz Volume
0 -94979.3 -0.132816 -0.00789454 -0.382655 -0.00789838 4.58778e-08 -7.42524e-08 8.37756e-08 110.001 110.002 110.001 1.33104e+06
Loop time of 20.4058 on 16 procs (16 MPI x 1 OpenMP) for 2878 steps with 12288 atoms

Minimization stats:
  Stopping criterion = force tolerance
  Energy initial, next-to-last, final =
  Force two-norm initial, final = 0.087854 9.91311e-11
  Force max component initial, final = 0.00206958 2.60095e-12
  Final line search alpha, max atom move = 1 2.60095e-12
  Iterations, force evaluations = 2878 5756

Pair  time (%) = 19.1094 (93.6469)
Neigh time (%) = 0 (0)
Comm  time (%) = 1.03792 (5.08641)
Outpt time (%) = 0.01622 (0.0794871)
Other time (%) = 0.242267 (1.18725)

# Obtain new stress tensor

variable tmp equal pe
variable e1 equal -94979.2766983008
variable tmp equal press
variable p1 equal -0.132815926584671
variable tmp equal pxx
variable pxx1 equal -0.00789462968864599
variable tmp equal pyy
variable pyy1 equal -0.382654681371259
variable tmp equal pzz
variable pzz1 equal -0.00789846869410883
variable tmp equal pxy
variable pxy1 equal -1.85576263221772e-09
variable tmp equal pxz
variable pxz1 equal 3.17710305344476e-09
variable tmp equal pyz
variable pyz1 equal 8.64979689306733e-10

# Compute elastic constant from pressure tensor

variable C1pos equal 0.0789462621540999
variable C2pos equal 3.82654681159532
variable C3pos equal 0.0789846254080652
variable C4pos equal -1.21206466359e-08
variable C5pos equal -3.24251130708147e-08
variable C6pos equal 1.72855116958737e-08

# Combine positive and negative

variable C12 equal 0.5*(0.0786549914958692+0.0789462621540999)
variable C22 equal 0.5*(3.82579352930048+3.82654681159532)
variable C32 equal 0.5*(0.0786166429612311+0.0789846254080652)
variable C42 equal 0.5*(1.87301342390078e-08+-1.21206466359e-08)
variable C52 equal 0.5*(3.46884818856052e-08+-3.24251130708147e-08)
variable C62 equal 0.5*(-1.58554398612521e-08+1.72855116958737e-08)

# Delete dir to make sure it is not reused

variable dir delete

# uzz Perturbation

variable dir equal 3
include displace.mod
# NOTE: This script should not need to be
# modified. See in.elastic for more info.
#
# Find which reference length to use

variable len0 equal 110.000796794694

# Reset box and simulation parameters

clear
box tilt large
read_restart restart.equil
  triclinic box = (-55.0004 -55.0004 -55.0004) to (55.0004 55.0004 55.0004) with tilt (0 0 0)
  12288 atoms
include potential.mod
# NOTE: This script can be modified for different pair styles
# See in.elastic for more info.

# Choose potential
pair_style     rebo
pair_coeff     * * CH.airebo  C
Reading potential file CH.airebo with DATE: 2011-10-25

#pair_style     lcbop
#pair_coeff     C.lcbop
#pair_style     tersoff
#pair_coeff     BNC.tersoff

# Setup neighbor style
neighbor 1.0 nsq
neigh_modify once no every 1 delay 0 check yes

# Setup minimization style
min_style	     cg
min_modify	     dmax 0.01 line quadratic

# Setup output
thermo		500
thermo_style custom step temp pe press pxx pyy pzz pxy pxz pyz lx ly lz vol
thermo_modify norm no

# Output
dump            1 all xtc 100 traj.xtc
dump            2 all xyz 2000 relaxed.xyz
#dump            4 all atom 10 dump.atom

# Negative deformation

variable delta equal -1.0e-5*110.000796794694
variable deltaxy equal -1.0e-5*xy
variable deltaxz equal -1.0e-5*xz
variable deltayz equal -1.0e-5*yz
change_box all z delta 0 -0.00110000796794694 remap units box
  triclinic box = (-55.0004 -55.0004 -55.0004) to (55.0004 55.0004 54.9993) with tilt (0 0 0)

# Relax atoms positions

minimize 0 1e-10 10000000 10000000
  1 neighbor list requests
  update every 1 steps, delay 0 steps, check yes
Step Temp PotEng Press Pxx Pyy Pzz Pxy Pxz Pyz Lx Ly Lz Volume
5030239            0   -94979.277    2.2443635    1.2052432    1.1852299    4.3426173 -0.033090335 0.0075520139 0.0090690255     110.0008     110.0008     109.9997    1331015.6
Averages over the last 4 of 8 rows, steps 5032000 to 5033126:
Temp PotEng Press Pxx Pyy Pzz Pxy Pxz Pyz Lx Ly Lz Volume
0 -94979.3 0.132769 0.00786176 0.0078656 0.382579 4.57955e-08 -7.48022e-08 8.41046e-08 110.001 110.001 110 1.33102e+06
Loop time of 20.412 on 16 procs (16 MPI x 1 OpenMP) for 2887 steps with 12288 atoms

Minimization stats:
  Stopping criterion = force tolerance
  Energy initial, next-to-last, final =
  Force two-norm initial, final = 0.0876145 9.96322e-11
  Force max component initial, final = 0.00213252 3.38475e-12
  Final line search alpha, max atom move = 1 3.38475e-12
  Iterations, force evaluations = 2887 5774

Pair  time (%) = 19.1915 (94.0207)
Neigh time (%) = 0 (0)
Comm  time (%) = 0.966163 (4.7333)
Outpt time (%) = 0.0162345 (0.0795343)
Other time (%) = 0.238088 (1.16641)

# Obtain new stress tensor

variable tmp equal pxx
variable pxx1 equal 0.0078616585900518
variable tmp equal pyy
variable pyy1 equal 0.00786549494203063
variable tmp equal pzz
variable pzz1 equal 0.382579351139895
variable tmp equal pxy
variable pxy1 equal -1.73663536642413e-09
variable tmp equal pxz
variable pxz1 equal 3.65972140090557e-09
variable tmp equal pyz
variable pyz1 equal 2.18483285411298e-09

# Compute elastic constant from pressure tensor

variable C1neg equal 0.078616620632878
variable C2neg equal 0.0786549515375751
variable C3neg equal 3.82579357293197
variable C4neg equal 2.53191782839625e-08
variable C5neg equal 3.72512965454228e-08
variable C6neg equal -1.60942390379378e-08

# Reset box and simulation parameters

clear
box tilt large
read_restart restart.equil
  triclinic box = (-55.0004 -55.0004 -55.0004) to (55.0004 55.0004 55.0004) with tilt (0 0 0)
  12288 atoms
include potential.mod
# NOTE: This script can be modified for different pair styles
# See in.elastic for more info.

# Choose potential
pair_style     rebo
pair_coeff     * * CH.airebo  C
Reading potential file CH.airebo with DATE: 2011-10-25

#pair_style     lcbop
#pair_coeff     C.lcbop
#pair_style     tersoff
#pair_coeff     BNC.tersoff

# Setup neighbor style
neighbor 1.0 nsq
neigh_modify once no every 1 delay 0 check yes

# Setup minimization style
min_style	     cg
min_modify	     dmax 0.01 line quadratic

# Setup output
thermo		500
thermo_style custom step temp pe press pxx pyy pzz pxy pxz pyz lx ly lz vol
thermo_modify norm no

# Output
dump            1 all xtc 100 traj.xtc
dump            2 all xyz 2000 relaxed.xyz
#dump            4 all atom 10 dump.atom

# Positive deformation

variable delta equal 1.0e-5*110.000796794694
variable deltaxy equal 1.0e-5*xy
variable deltaxz equal 1.0e-5*xz
variable deltayz equal 1.0e-5*yz
change_box all z delta 0 0.00110000796794694 remap units box
  triclinic box = (-55.0004 -55.0004 -55.0004) to (55.0004 55.0004 55.0015) with tilt (0 0 0)

# Relax atoms positions

minimize 0 1e-10 10000000 10000000
  1 neighbor list requests
  update every 1 steps, delay 0 steps, check yes
Step Temp PotEng Press Pxx Pyy Pzz Pxy Pxz Pyz Lx Ly Lz Volume
5030239            0   -94979.277   -2.2487457   -1.1751179   -1.1951302   -4.3759891 -0.033086632 0.0075520587 0.0090667688     110.0008     110.0008     110.0019    1331042.2
Averages over the last 4 of 8 rows, steps 5032000 to 5033125:
Temp PotEng Press Pxx Pyy Pzz Pxy Pxz Pyz Lx Ly Lz Volume
0 -94979.3 -0.132816 -0.00789838 -0.00789454 -0.382655 4.53865e-08 -7.4457e-08 8.39162e-08 110.001 110.001 110.002 1.33104e+06
Loop time of 20.4631 on 16 procs (16 MPI x 1 OpenMP) for 2886 steps with 12288 atoms

Minimization stats:
  Stopping criterion = force tolerance
  Energy initial, next-to-last, final =
  Force two-norm initial, final = 0.0879781 9.9734e-11
  Force max component initial, final = 0.00194963 2.83884e-12
  Final line search alpha, max atom move = 1 2.83884e-12
  Iterations, force evaluations = 2886 5772

Pair  time (%) = 19.1794 (93.7267)
Neigh time (%) = 0 (0)
Comm  time (%) = 1.02696 (5.01861)
Outpt time (%) = 0.0161773 (0.0790561)
Other time (%) = 0.240578 (1.17567)

# Obtain new stress tensor

variable tmp equal pe
variable e1 equal -94979.2766983008
variable tmp equal press
variable p1 equal -0.132815927543798
variable tmp equal pxx
variable pxx1 equal -0.00789846867828613
variable tmp equal pyy
variable pyy1 equal -0.00789463065081551
variable tmp equal pzz
variable pzz1 equal -0.382654683302291
variable tmp equal pxy
variable pxy1 equal -1.75335130862962e-09
variable tmp equal pxz
variable pxz1 equal 3.07518779272355e-09
variable tmp equal pyz
variable pyz1 equal 9.86254231048628e-10

# Compute elastic constant from pressure tensor

variable C1pos equal 0.0789846520505013
variable C2pos equal 0.0789463043908863
variable C3pos equal 3.82654677148989
variable C4pos equal -1.3333392053319e-08
variable C5pos equal -3.14059604636026e-08
variable C6pos equal 1.62613984599927e-08

# Combine positive and negative

variable C13 equal 0.5*(0.078616620632878+0.0789846520505013)
variable C23 equal 0.5*(0.0786549515375751+0.0789463043908863)
variable C33 equal 0.5*(3.82579357293197+3.82654677148989)
variable C43 equal 0.5*(2.53191782839625e-08+-1.3333392053319e-08)
variable C53 equal 0.5*(3.72512965454228e-08+-3.14059604636026e-08)
variable C63 equal 0.5*(-1.60942390379378e-08+1.62613984599927e-08)

# Delete dir to make sure it is not reused

variable dir delete

# uyz Perturbation

variable dir equal 4
include displace.mod
# NOTE: This script should not need to be
# modified. See in.elastic for more info.
#
# Find which reference length to use

variable len0 equal 110.000796794694

# Reset box and simulation parameters

clear
box tilt large
read_restart restart.equil
  triclinic box = (-55.0004 -55.0004 -55.0004) to (55.0004 55.0004 55.0004) with tilt (0 0 0)
  12288 atoms
include potential.mod
# NOTE: This script can be modified for different pair styles
# See in.elastic for more info.

# Choose potential
pair_style     rebo
pair_coeff     * * CH.airebo  C
Reading potential file CH.airebo with DATE: 2011-10-25

#pair_style     lcbop
#pair_coeff     C.lcbop
#pair_style     tersoff
#pair_coeff     BNC.tersoff

# Setup neighbor style
neighbor 1.0 nsq
neigh_modify once no every 1 delay 0 check yes

# Setup minimization style
min_style	     cg
min_modify	     dmax 0.01 line quadratic

# Setup output
thermo		500
thermo_style custom step temp pe press pxx pyy pzz pxy pxz pyz lx ly lz vol
thermo_modify norm no

# Output
dump            1 all xtc 100 traj.xtc
dump            2 all xyz 2000 relaxed.xyz
#dump            4 all atom 10 dump.atom

# Negative deformation

variable delta equal -1.0e-5*110.000796794694
variable deltaxy equal -1.0e-5*xy
variable deltaxz equal -1.0e-5*xz
variable deltayz equal -1.0e-5*yz
change_box all yz delta -0.00110000796794694 remap units box
  triclinic box = (-55.0004 -55.0004 -55.0004) to (55.0004 55.0004 55.0004) with tilt (0 0 -0.00110001)

# Relax atoms positions

minimize 0 1e-10 10000000 10000000
  1 neighbor list requests
  update every 1 steps, delay 0 steps, check yes
Step Temp PotEng Press Pxx Pyy Pzz Pxy Pxz Pyz Lx Ly Lz Volume
5030239            0   -94979.277 -0.0022469104  0.015022378 -0.0049899241 -0.016773185 -0.033087964 0.0075502769    2.2880228     110.0008     110.0008     110.0008    1331028.9
Averages over the last 4 of 8 rows, steps 5032000 to 5033181:
Temp PotEng Press Pxx Pyy Pzz Pxy Pxz Pyz Lx Ly Lz Volume
0 -94979.3 -6.72667e-05 -3.9926e-05 -9.08942e-05 -7.09798e-05 1.60396e-09 4.2875e-09 0.658359 110.001 110.001 110.001 1.33103e+06
Loop time of 20.8165 on 16 procs (16 MPI x 1 OpenMP) for 2942 steps with 12288 atoms

Minimization stats:
  Stopping criterion = force tolerance
  Energy initial, next-to-last, final =
  Force two-norm initial, final = 0.0873436 9.93524e-11
  Force max component initial, final = 0.0020786 2.80545e-12
  Final line search alpha, max atom move = 1 2.80545e-12
  Iterations, force evaluations = 2942 5884

Pair  time (%) = 19.5509 (93.9204)
Neigh time (%) = 0 (0)
Comm  time (%) = 1.00347 (4.82057)
Outpt time (%) = 0.0161703 (0.0776801)
Other time (%) = 0.245908 (1.18131)

# Obtain new stress tensor

variable tmp equal pxx
variable pxx1 equal -3.95830562075133e-05
variable tmp equal pyy
variable pyy1 equal -9.05275122074826e-05
variable tmp equal pzz
variable pzz1 equal -7.06874738767688e-05
variable tmp equal pxy
variable pxy1 equal -2.74120239170518e-11
variable tmp equal pxz
variable pxz1 equal -5.57221016597793e-11
variable tmp equal pyz
variable pyz1 equal 0.658359492283088

# Compute elastic constant from pressure tensor

variable C1neg equal -0.000395795829715132
variable C2neg equal -0.000905273004806021
variable C3neg equal -0.000706813205744603
variable C4neg equal 6.58359492630173
variable C5neg equal 9.68615197693019e-11
variable C6neg equal 9.97994387132982e-10

# Reset box and simulation parameters

clear
box tilt large
read_restart restart.equil
  triclinic box = (-55.0004 -55.0004 -55.0004) to (55.0004 55.0004 55.0004) with tilt (0 0 0)
  12288 atoms
include potential.mod
# NOTE: This script can be modified for different pair styles
# See in.elastic for more info.

# Choose potential
pair_style     rebo
pair_coeff     * * CH.airebo  C
Reading potential file CH.airebo with DATE: 2011-10-25

#pair_style     lcbop
#pair_coeff     C.lcbop
#pair_style     tersoff
#pair_coeff     BNC.tersoff

# Setup neighbor style
neighbor 1.0 nsq
neigh_modify once no every 1 delay 0 check yes

# Setup minimization style
min_style	     cg
min_modify	     dmax 0.01 line quadratic

# Setup output
thermo		500
thermo_style custom step temp pe press pxx pyy pzz pxy pxz pyz lx ly lz vol
thermo_modify norm no

# Output
dump            1 all xtc 100 traj.xtc
dump            2 all xyz 2000 relaxed.xyz
#dump            4 all atom 10 dump.atom

# Positive deformation

variable delta equal 1.0e-5*110.000796794694
variable deltaxy equal 1.0e-5*xy
variable deltaxz equal 1.0e-5*xz
variable deltayz equal 1.0e-5*yz
change_box all yz delta 0.00110000796794694 remap units box
  triclinic box = (-55.0004 -55.0004 -55.0004) to (55.0004 55.0004 55.0004) with tilt (0 0 0.00110001)

# Relax atoms positions

minimize 0 1e-10 10000000 10000000
  1 neighbor list requests
  update every 1 steps, delay 0 steps, check yes
Step Temp PotEng Press Pxx Pyy Pzz Pxy Pxz Pyz Lx Ly Lz Volume
5030239            0   -94979.277 -0.0022476643  0.015021187 -0.0049887383 -0.016775442 -0.033088997 0.0075537878    -2.269887     110.0008     110.0008     110.0008    1331028.9
Averages over the last 4 of 8 rows, steps 5032000 to 5033195:
Temp PotEng Press Pxx Pyy Pzz Pxy Pxz Pyz Lx Ly Lz Volume
0 -94979.3 -6.72664e-05 -3.99406e-05 -9.08771e-05 -7.09817e-05 4.30343e-09 4.13814e-09 -0.658359 110.001 110.001 110.001 1.33103e+06
Loop time of 20.9452 on 16 procs (16 MPI x 1 OpenMP) for 2956 steps with 12288 atoms

Minimization stats:
  Stopping criterion = force tolerance
  Energy initial, next-to-last, final =
  Force two-norm initial, final = 0.0871163 9.99159e-11
  Force max component initial, final = 0.00228553 3.27245e-12
  Final line search alpha, max atom move = 1 3.27245e-12
  Iterations, force evaluations = 2956 5912

Pair  time (%) = 19.649 (93.8112)
Neigh time (%) = 0 (0)
Comm  time (%) = 1.03277 (4.9308)
Outpt time (%) = 0.0163489 (0.0780557)
Other time (%) = 0.247147 (1.17997)

# Obtain new stress tensor

variable tmp equal pe
variable e1 equal -94979.2766971555
variable tmp equal press
variable p1 equal -6.69324607785096e-05
variable tmp equal pxx
variable pxx1 equal -3.95828449125539e-05
variable tmp equal pyy
variable pyy1 equal -9.05272498218134e-05
variable tmp equal pzz
variable pzz1 equal -7.06872876011614e-05
variable tmp equal pxy
variable pxy1 equal -3.76669433169099e-11
variable tmp equal pxz
variable pxz1 equal -1.18628633924964e-11
variable tmp equal pyz
variable pyz1 equal -0.658359491955003

# Compute elastic constant from pressure tensor

variable C1pos equal 0.000395793716765538
variable C2pos equal 0.000905270380949329
variable C3pos equal 0.000706811342988529
variable C4pos equal 6.58359491607918
variable C5pos equal -5.35453902442131e-10
variable C6pos equal -8.95445193134401e-10

# Combine positive and negative

variable C14 equal 0.5*(-0.000395795829715132+0.000395793716765538)
variable C24 equal 0.5*(-0.000905273004806021+0.000905270380949329)
variable C34 equal 0.5*(-0.000706813205744603+0.000706811342988529)
variable C44 equal 0.5*(6.58359492630173+6.58359491607918)
variable C54 equal 0.5*(9.68615197693019e-11+-5.35453902442131e-10)
variable C64 equal 0.5*(9.97994387132982e-10+-8.95445193134401e-10)

# Delete dir to make sure it is not reused

variable dir delete

# uxz Perturbation

variable dir equal 5
include displace.mod
# NOTE: This script should not need to be
# modified. See in.elastic for more info.
#
# Find which reference length to use

variable len0 equal 110.000796794694

# Reset box and simulation parameters

clear
box tilt large
read_restart restart.equil
  triclinic box = (-55.0004 -55.0004 -55.0004) to (55.0004 55.0004 55.0004) with tilt (0 0 0)
  12288 atoms
include potential.mod
# NOTE: This script can be modified for different pair styles
# See in.elastic for more info.

# Choose potential
pair_style     rebo
pair_coeff     * * CH.airebo  C
Reading potential file CH.airebo with DATE: 2011-10-25

#pair_style     lcbop
#pair_coeff     C.lcbop
#pair_style     tersoff
#pair_coeff     BNC.tersoff

# Setup neighbor style
neighbor 1.0 nsq
neigh_modify once no every 1 delay 0 check yes

# Setup minimization style
min_style	     cg
min_modify	     dmax 0.01 line quadratic

# Setup output
thermo		500
thermo_style custom step temp pe press pxx pyy pzz pxy pxz pyz lx ly lz vol
thermo_modify norm no

# Output
dump            1 all xtc 100 traj.xtc
dump            2 all xyz 2000 relaxed.xyz
#dump            4 all atom 10 dump.atom

# Negative deformation

variable delta equal -1.0e-5*110.000796794694
variable deltaxy equal -1.0e-5*xy
variable deltaxz equal -1.0e-5*xz
variable deltayz equal -1.0e-5*yz
change_box all xz delta -0.00110000796794694 remap units box
  triclinic box = (-55.0004 -55.0004 -55.0004) to (55.0004 55.0004 55.0004) with tilt (0 -0.00110001 0)

# Relax atoms positions

minimize 0 1e-10 10000000 10000000
  1 neighbor list requests
  update every 1 steps, delay 0 steps, check yes
Step Temp PotEng Press Pxx Pyy Pzz Pxy Pxz Pyz Lx Ly Lz Volume
5030239            0   -94979.277 -0.0022470961  0.015022626 -0.0049903934  -0.01677352 -0.033088444    2.2865073 0.0090661432     110.0008     110.0008     110.0008    1331028.9
Averages over the last 4 of 8 rows, steps 5032000 to 5033171:
Temp PotEng Press Pxx Pyy Pzz Pxy Pxz Pyz Lx Ly Lz Volume
0 -94979.3 -6.72619e-05 -8.23134e-05 -3.99207e-05 -7.95515e-05 -3.3802e-09 0.658359 -1.08358e-08 110.001 110.001 110.001 1.33103e+06
Loop time of 20.762 on 16 procs (16 MPI x 1 OpenMP) for 2932 steps with 12288 atoms

Minimization stats:
  Stopping criterion = force tolerance
  Energy initial, next-to-last, final =
  Force two-norm initial, final = 0.0872921 9.97658e-11
  Force max component initial, final = 0.00194431 3.36664e-12
  Final line search alpha, max atom move = 1 3.36664e-12
  Iterations, force evaluations = 2932 5864

Pair  time (%) = 19.5001 (93.9222)
Neigh time (%) = 0 (0)
Comm  time (%) = 1.0109 (4.86897)
Outpt time (%) = 0.0161374 (0.0777258)
Other time (%) = 0.234846 (1.13113)

# Obtain new stress tensor

variable tmp equal pxx
variable pxx1 equal -8.19791266973192e-05
variable tmp equal pyy
variable pyy1 equal -3.9584114029391e-05
variable tmp equal pzz
variable pzz1 equal -7.92311249220011e-05
variable tmp equal pxy
variable pxy1 equal -7.31272400907311e-11
variable tmp equal pxz
variable pxz1 equal 0.658359491578783
variable tmp equal pyz
variable pyz1 equal -5.61497463386725e-12

# Compute elastic constant from pressure tensor

variable C1neg equal -0.000819756534613191
variable C2neg equal -0.000395839023025105
variable C3neg equal -0.000792249716196926
variable C4neg equal 3.41469999649403e-09
variable C5neg equal 6.58359491644191
variable C6neg equal 5.40842225396189e-10

# Reset box and simulation parameters

clear
box tilt large
read_restart restart.equil
  triclinic box = (-55.0004 -55.0004 -55.0004) to (55.0004 55.0004 55.0004) with tilt (0 0 0)
  12288 atoms
include potential.mod
# NOTE: This script can be modified for different pair styles
# See in.elastic for more info.

# Choose potential
pair_style     rebo
pair_coeff     * * CH.airebo  C
Reading potential file CH.airebo with DATE: 2011-10-25

#pair_style     lcbop
#pair_coeff     C.lcbop
#pair_style     tersoff
#pair_coeff     BNC.tersoff

# Setup neighbor style
neighbor 1.0 nsq
neigh_modify once no every 1 delay 0 check yes

# Setup minimization style
min_style	     cg
min_modify	     dmax 0.01 line quadratic

# Setup output
thermo		500
thermo_style custom step temp pe press pxx pyy pzz pxy pxz pyz lx ly lz vol
thermo_modify norm no

# Output
dump            1 all xtc 100 traj.xtc
dump            2 all xyz 2000 relaxed.xyz
#dump            4 all atom 10 dump.atom

# Positive deformation

variable delta equal 1.0e-5*110.000796794694
variable deltaxy equal 1.0e-5*xy
variable deltaxz equal 1.0e-5*xz
variable deltayz equal 1.0e-5*yz
change_box all xz delta 0.00110000796794694 remap units box
  triclinic box = (-55.0004 -55.0004 -55.0004) to (55.0004 55.0004 55.0004) with tilt (0 0.00110001 0)

# Relax atoms positions

minimize 0 1e-10 10000000 10000000
  1 neighbor list requests
  update every 1 steps, delay 0 steps, check yes
Step Temp PotEng Press Pxx Pyy Pzz Pxy Pxz Pyz Lx Ly Lz Volume
5030239            0   -94979.277 -0.0022474786  0.015021388 -0.0049903478 -0.016773476 -0.033088522   -2.2714032 0.0090696537     110.0008     110.0008     110.0008    1331028.9
Averages over the last 4 of 8 rows, steps 5032000 to 5033174:
Temp PotEng Press Pxx Pyy Pzz Pxy Pxz Pyz Lx Ly Lz Volume
0 -94979.3 -6.72641e-05 -8.23097e-05 -3.99299e-05 -7.95527e-05 3.97614e-09 -0.65836 -1.89786e-08 110.001 110.001 110.001 1.33103e+06
Loop time of 20.809 on 16 procs (16 MPI x 1 OpenMP) for 2935 steps with 12288 atoms

Minimization stats:
  Stopping criterion = force tolerance
  Energy initial, next-to-last, final =
  Force two-norm initial, final = 0.0871679 9.9732e-11
  Force max component initial, final = 0.00213781 2.66287e-12
  Final line search alpha, max atom move = 1 2.66287e-12
  Iterations, force evaluations = 2935 5870

Pair  time (%) = 19.5136 (93.7743)
Neigh time (%) = 0 (0)
Comm  time (%) = 1.03422 (4.97003)
Outpt time (%) = 0.0161575 (0.0776467)
Other time (%) = 0.245127 (1.17798)

# Obtain new stress tensor

variable tmp equal pe
variable e1 equal -94979.2766971555
variable tmp equal press
variable p1 equal -6.69314217687213e-05
variable tmp equal pxx
variable pxx1 equal -8.1979074759873e-05
variable tmp equal pyy
variable pyy1 equal -3.95840880114888e-05
variable tmp equal pzz
variable pzz1 equal -7.92311025348021e-05
variable tmp equal pxy
variable pxy1 equal -6.53868714027649e-12
variable tmp equal pxz
variable pxz1 equal -0.65835949191418
variable tmp equal pyz
variable pyz1 equal 1.52113212282299e-11

# Compute elastic constant from pressure tensor

variable C1pos equal 0.000819756015238729
variable C2pos equal 0.000395838762846083
variable C3pos equal 0.000792249492324936
variable C4pos equal -3.622962955115e-09
variable C5pos equal 6.58359491848772
variable C6pos equal -1.20672775490074e-09

# Combine positive and negative

variable C15 equal 0.5*(-0.000819756534613191+0.000819756015238729)
variable C25 equal 0.5*(-0.000395839023025105+0.000395838762846083)
variable C35 equal 0.5*(-0.000792249716196926+0.000792249492324936)
variable C45 equal 0.5*(3.41469999649403e-09+-3.622962955115e-09)
variable C55 equal 0.5*(6.58359491644191+6.58359491848772)
variable C65 equal 0.5*(5.40842225396189e-10+-1.20672775490074e-09)

# Delete dir to make sure it is not reused

variable dir delete

# uxy Perturbation

variable dir equal 6
include displace.mod
# NOTE: This script should not need to be
# modified. See in.elastic for more info.
#
# Find which reference length to use

variable len0 equal 110.000796794691

# Reset box and simulation parameters

clear
box tilt large
read_restart restart.equil
  triclinic box = (-55.0004 -55.0004 -55.0004) to (55.0004 55.0004 55.0004) with tilt (0 0 0)
  12288 atoms
include potential.mod
# NOTE: This script can be modified for different pair styles
# See in.elastic for more info.

# Choose potential
pair_style     rebo
pair_coeff     * * CH.airebo  C
Reading potential file CH.airebo with DATE: 2011-10-25

#pair_style     lcbop
#pair_coeff     C.lcbop
#pair_style     tersoff
#pair_coeff     BNC.tersoff

# Setup neighbor style
neighbor 1.0 nsq
neigh_modify once no every 1 delay 0 check yes

# Setup minimization style
min_style	     cg
min_modify	     dmax 0.01 line quadratic

# Setup output
thermo		500
thermo_style custom step temp pe press pxx pyy pzz pxy pxz pyz lx ly lz vol
thermo_modify norm no

# Output
dump            1 all xtc 100 traj.xtc
dump            2 all xyz 2000 relaxed.xyz
#dump            4 all atom 10 dump.atom

# Negative deformation

variable delta equal -1.0e-5*110.000796794691
variable deltaxy equal -1.0e-5*xy
variable deltaxz equal -1.0e-5*xz
variable deltayz equal -1.0e-5*yz
change_box all xy delta -0.00110000796794691 remap units box
  triclinic box = (-55.0004 -55.0004 -55.0004) to (55.0004 55.0004 55.0004) with tilt (-0.00110001 0 0)

# Relax atoms positions

minimize 0 1e-10 10000000 10000000
  1 neighbor list requests
  update every 1 steps, delay 0 steps, check yes
Step Temp PotEng Press Pxx Pyy Pzz Pxy Pxz Pyz Lx Ly Lz Volume
5030239            0   -94979.277 -0.0022484121  0.015021799 -0.0049612446 -0.016805791    2.2458661 0.0075520755 0.0090684893     110.0008     110.0008     110.0008    1331028.9
Averages over the last 4 of 8 rows, steps 5032000 to 5033173:
Temp PotEng Press Pxx Pyy Pzz Pxy Pxz Pyz Lx Ly Lz Volume
0 -94979.3 -6.72637e-05 -9.08968e-05 -7.09985e-05 -3.98957e-05 0.658359 -2.16554e-09 -1.43376e-08 110.001 110.001 110.001 1.33103e+06
Loop time of 20.8314 on 16 procs (16 MPI x 1 OpenMP) for 2934 steps with 12288 atoms

Minimization stats:
  Stopping criterion = force tolerance
  Energy initial, next-to-last, final =
  Force two-norm initial, final = 0.0869211 9.87628e-11
  Force max component initial, final = 0.00201597 3.22203e-12
  Final line search alpha, max atom move = 1 3.22203e-12
  Iterations, force evaluations = 2934 5868

Pair  time (%) = 19.513 (93.6708)
Neigh time (%) = 0 (0)
Comm  time (%) = 1.05697 (5.07393)
Outpt time (%) = 0.0163029 (0.0782612)
Other time (%) = 0.245186 (1.177)

# Obtain new stress tensor

variable tmp equal pxx
variable pxx1 equal -9.05262689888073e-05
variable tmp equal pyy
variable pyy1 equal -7.0687566712014e-05
variable tmp equal pzz
variable pzz1 equal -3.95804722885581e-05
variable tmp equal pxy
variable pxy1 equal 0.658359492764505
variable tmp equal pxz
variable pxz1 equal -2.05868148419169e-11
variable tmp equal pyz
variable pyz1 equal -1.344942515119e-11

# Compute elastic constant from pressure tensor

variable C1neg equal -0.000905227957528072
variable C2neg equal -0.000706873549851335
variable C3neg equal -0.000395743189862496
variable C4neg equal 3.3363554913208e-09
variable C5neg equal 4.48214387947926e-10
variable C6neg equal 6.58359492891717

# Reset box and simulation parameters

clear
box tilt large
read_restart restart.equil
  triclinic box = (-55.0004 -55.0004 -55.0004) to (55.0004 55.0004 55.0004) with tilt (0 0 0)
  12288 atoms
include potential.mod
# NOTE: This script can be modified for different pair styles
# See in.elastic for more info.

# Choose potential
pair_style     rebo
pair_coeff     * * CH.airebo  C
Reading potential file CH.airebo with DATE: 2011-10-25

#pair_style     lcbop
#pair_coeff     C.lcbop
#pair_style     tersoff
#pair_coeff     BNC.tersoff

# Setup neighbor style
neighbor 1.0 nsq
neigh_modify once no every 1 delay 0 check yes

# Setup minimization style
min_style	     cg
min_modify	     dmax 0.01 line quadratic

# Setup output
thermo		500
thermo_style custom step temp pe press pxx pyy pzz pxy pxz pyz lx ly lz vol
thermo_modify norm no

# Output
dump            1 all xtc 100 traj.xtc
dump            2 all xyz 2000 relaxed.xyz
#dump            4 all atom 10 dump.atom

# Positive deformation

variable delta equal 1.0e-5*110.000796794691
variable deltaxy equal 1.0e-5*xy
variable deltaxz equal 1.0e-5*xz
variable deltayz equal 1.0e-5*yz
change_box all xy delta 0.00110000796794691 remap units box
  triclinic box = (-55.0004 -55.0004 -55.0004) to (55.0004 55.0004 55.0004) with tilt (0.00110001 0 0)

# Relax atoms positions

minimize 0 1e-10 10000000 10000000
  1 neighbor list requests
  update every 1 steps, delay 0 steps, check yes
Step Temp PotEng Press Pxx Pyy Pzz Pxy Pxz Pyz Lx Ly Lz Volume
5030239            0   -94979.277 -0.0022461626  0.015023843 -0.0049595805 -0.016802751    -2.312043 0.0075519974 0.0090673049     110.0008     110.0008     110.0008    1331028.9
Averages over the last 4 of 8 rows, steps 5032000 to 5033173:
Temp PotEng Press Pxx Pyy Pzz Pxy Pxz Pyz Lx Ly Lz Volume
0 -94979.3 -6.72603e-05 -9.0893e-05 -7.10019e-05 -3.9886e-05 -0.658359 -1.67027e-10 -9.24856e-09 110.001 110.001 110.001 1.33103e+06
Loop time of 20.9483 on 16 procs (16 MPI x 1 OpenMP) for 2934 steps with 12288 atoms

Minimization stats:
  Stopping criterion = force tolerance
  Energy initial, next-to-last, final =
  Force two-norm initial, final = 0.0875378 9.95898e-11
  Force max component initial, final = 0.00206614 3.13091e-12
  Final line search alpha, max atom move = 1 3.13091e-12
  Iterations, force evaluations = 2934 5868

Pair  time (%) = 19.5238 (93.1998)
Neigh time (%) = 0 (0)
Comm  time (%) = 1.16221 (5.54798)
Outpt time (%) = 0.0162432 (0.0775394)
Other time (%) = 0.246064 (1.17463)

# Obtain new stress tensor

variable tmp equal pe
variable e1 equal -94979.2766971555
variable tmp equal press
variable p1 equal -6.69313764219923e-05
variable tmp equal pxx
variable pxx1 equal -9.05261125991482e-05
variable tmp equal pyy
variable pyy1 equal -7.06875731266841e-05
variable tmp equal pzz
variable pzz1 equal -3.95804435401445e-05
variable tmp equal pxy
variable pxy1 equal -0.65835949302039
variable tmp equal pxz
variable pxz1 equal 1.21408324337769e-11
variable tmp equal pyz
variable pyz1 equal -6.46940870229579e-11

# Compute elastic constant from pressure tensor

variable C1pos equal 0.000905226393631481
variable C2pos equal 0.000706873613998036
variable C3pos equal 0.00039574290237836
variable C4pos equal -2.82390887260312e-09
variable C5pos equal -7.75490860704864e-10
variable C6pos equal 6.58359492893179

# Combine positive and negative

variable C16 equal 0.5*(-0.000905227957528072+0.000905226393631481)
variable C26 equal 0.5*(-0.000706873549851335+0.000706873613998036)
variable C36 equal 0.5*(-0.000395743189862496+0.00039574290237836)
variable C46 equal 0.5*(3.3363554913208e-09+-2.82390887260312e-09)
variable C56 equal 0.5*(4.48214387947926e-10+-7.75490860704864e-10)
variable C66 equal 0.5*(6.58359492891717+6.58359492893179)

# Delete dir to make sure it is not reused

variable dir delete

# Output final values

variable C11all equal 3.82617018605653
variable C22all equal 3.8261701704479
variable C33all equal 3.82617017221093

variable C12all equal 0.5*(0.0788006268249846+0.0788006472334403)
variable C13all equal 0.5*(0.0788006363416897+0.0788006445829709)
variable C23all equal 0.5*(0.0788006279642307+0.0788006341846481)

variable C44all equal 6.58359492119046
variable C55all equal 6.58359491746481
variable C66all equal 6.58359492892448

variable C14all equal 0.5*(-1.05647479699549e-09+-1.32017593666244e-08)
variable C15all equal 0.5*(-2.59687230974668e-10+-5.3785448759008e-09)
variable C16all equal 0.5*(-7.81948295502065e-10+3.0721231629175e-10)

variable C24all equal 0.5*(-1.31192834601588e-09+3.3047438015539e-09)
variable C25all equal 0.5*(-1.30089510995066e-10+1.13168440739525e-09)
variable C26all equal 0.5*(3.20733504859116e-11+7.15035917310801e-10)

variable C34all equal 0.5*(-9.31378037031822e-10+5.99289311532175e-09)
variable C35all equal 0.5*(-1.1193599497826e-10+2.9226680409101e-09)
variable C36all equal 0.5*(-1.43742067998821e-10+8.35797110274501e-11)

variable C45all equal 0.5*(-1.04131479310485e-10+-2.19296191336415e-10)
variable C46all equal 0.5*(2.5622330935884e-10+5.12745969992905e-11)
variable C56all equal 0.5*(-1.63638236378469e-10+-3.32942764752276e-10)

# Average moduli for cubic crystals

variable C11cubic equal (3.82617018605653+3.8261701704479+3.82617017221093)/3.0
variable C12cubic equal (0.0788006370292124+0.0788006404623303+0.0788006310744394)/3.0
variable C44cubic equal (6.58359492119046+6.58359491746481+6.58359492892448)/3.0

variable bulkmodulus equal (3.82617017623845+2*0.0788006361886607)/3.0
variable shearmodulus1 equal 6.58359492252658
variable shearmodulus2 equal (3.82617017623845-0.0788006361886607)/2.0
variable poissonratio equal 1.0/(1.0+3.82617017623845/0.0788006361886607)

# For Stillinger-Weber silicon, the analytical results
# are known to be (E. R. Cowley, 1988):
#               C11 = 151.4 GPa
#               C12 = 76.4 GPa
#               C44 = 56.4 GPa

print "========================================="
=========================================
print "Components of the Elastic Constant Tensor"
Components of the Elastic Constant Tensor
print "========================================="
=========================================

Elastic Constant C11all = 3.82617018605653 GPa
Elastic Constant C22all = 3.8261701704479 GPa
Elastic Constant C33all = 3.82617017221093 GPa

Elastic Constant C12all = 0.0788006370292124 GPa
Elastic Constant C13all = 0.0788006404623303 GPa
Elastic Constant C23all = 0.0788006310744394 GPa

Elastic Constant C44all = 6.58359492119046 GPa
Elastic Constant C55all = 6.58359491746481 GPa
Elastic Constant C66all = 6.58359492892448 GPa

Elastic Constant C14all = -7.12911708180994e-09 GPa
Elastic Constant C15all = -2.81911605343773e-09 GPa
Elastic Constant C16all = -2.37367989605157e-10 GPa

Elastic Constant C24all = 9.9640772776901e-10 GPa
Elastic Constant C25all = 5.00797448200092e-10 GPa
Elastic Constant C26all = 3.73554633898356e-10 GPa

Elastic Constant C34all = 2.53075753914496e-09 GPa
Elastic Constant C35all = 1.40536602296592e-09 GPa
Elastic Constant C36all = -3.00811784856855e-11 GPa

Elastic Constant C45all = -1.6171383532345e-10 GPa
Elastic Constant C46all = 1.53748953179065e-10 GPa
Elastic Constant C56all = -2.48290500565373e-10 GPa

print "========================================="
=========================================
print "Average properties for a cubic crystal"
Average properties for a cubic crystal
print "========================================="
=========================================

Bulk Modulus = 1.32792381620526 GPa
Shear Modulus 1 = 6.58359492252658 GPa
Shear Modulus 2 = 1.87368477002489 GPa
Poisson Ratio = 0.020179571109184
Deformation size: 1.0e-5

print "Lattice_type	lattice_constant	bulk_modulus	poisson	     c11	     c12         c44	" file elastic_constants.out
Lattice_type	lattice_constant	bulk_modulus	poisson	     c11	     c12         c44
sc    10.0    1.32792381620526     0.020179571109184     3.82617018605653     0.0788006370292124     6.58359492119046
