read_data       P8-3_D3_1.xyz
  orthogonal box = (-14.6036 -14.6036 -14.6036) to (14.6036 14.6036 14.6036)
  reading atoms ...
  768 atoms
change_box 	all triclinic
  triclinic box = (-14.6036 -14.6036 -14.6036) to (14.6036 14.6036 14.6036) with tilt (0 0 0)

include potential.mod
# NOTE: This script can be modified for different pair styles
# See in.elastic for more info.

# Choose potential
pair_style     rebo
pair_coeff     * * CH.airebo  C
Reading potential file CH.airebo with DATE: 2011-10-25

#pair_style     lcbop
#pair_coeff     C.lcbop
#pair_style     tersoff
#pair_coeff     BNC.tersoff

# Setup neighbor style
neighbor 1.0 nsq
neigh_modify once no every 1 delay 0 check yes

# Setup minimization style
min_style	     cg
min_modify	     dmax 0.01 line quadratic

# Setup output
thermo		500
thermo_style custom step temp pe press pxx pyy pzz pxy pxz pyz lx ly lz vol
thermo_modify norm no

# Output
dump            1 all xtc 100 traj.xtc
dump            2 all xyz 2000 relaxed.xyz
#dump            4 all atom 10 dump.atom

# Compute initial state
fix 3 all box/relax  aniso 0.0
minimize 0 1e-10 10000000 10000000
  1 neighbor list requests
  update every 1 steps, delay 0 steps, check yes
Step Temp PotEng Press Pxx Pyy Pzz Pxy Pxz Pyz Lx Ly Lz Volume
0            0   -4560.2218    152540.68    152540.71    152540.63    152540.71  -0.01859197  0.010999674 0.0030472552     29.20716     29.20716     29.20716    24915.407
Averages over the last 32 of 64 rows, steps 16000 to 31436:
Temp PotEng Press Pxx Pyy Pzz Pxy Pxz Pyz Lx Ly Lz Volume
0 -5810.74 7.52879 3.42558 -4.91395 24.0748 -0.000378884 0.000114045 0.000183052 28.2014 28.2015 28.2009 22432.7
Loop time of 14.2472 on 16 procs (16 MPI x 1 OpenMP) for 31436 steps with 768 atoms

Minimization stats:
  Stopping criterion = force tolerance
  Energy initial, next-to-last, final =
  Force two-norm initial, final = 4585.93 9.57434e-11
  Force max component initial, final = 2372.16 4.0055e-11
  Final line search alpha, max atom move = 1 4.0055e-11
  Iterations, force evaluations = 31436 40809

Pair  time (%) = 10.7178 (75.2271)
Neigh time (%) = 0.0159187 (0.111732)
Comm  time (%) = 1.80652 (12.6798)
Outpt time (%) = 0.0446498 (0.313393)
Other time (%) = 1.66236 (11.668)

#dump rel all xyz 10 relaxed-*.xyz
#dump 3 all xyz 10 relaxed.xyz
#dump 3 all atom 10 dump.atom

variable tmp equal pxx
variable pxx0 equal 9.39944636375086e-10
variable tmp equal pyy
variable pyy0 equal 2.81797120898016e-09
variable tmp equal pzz
variable pzz0 equal -2.63232209451898e-09
variable tmp equal pyz
variable pyz0 equal 8.81710747628418e-10
variable tmp equal pxz
variable pxz0 equal 8.76906941991067e-10
variable tmp equal pxy
variable pxy0 equal 6.48141221013417e-09

variable tmp equal lx
variable lx0 equal 27.9235627345524
variable tmp equal ly
variable ly0 equal 27.9235627345443
variable tmp equal lz
variable lz0 equal 27.9235627345545

# These formulas define the derivatives w.r.t. strain components
# Constants uses $, variables use v_
variable d1 equal -(v_pxx1-9.39944636375086e-10)/(v_delta/v_len0)*0.0001
variable d2 equal -(v_pyy1-2.81797120898016e-09)/(v_delta/v_len0)*0.0001
variable d3 equal -(v_pzz1--2.63232209451898e-09)/(v_delta/v_len0)*0.0001
variable d4 equal -(v_pyz1-8.81710747628418e-10)/(v_delta/v_len0)*0.0001
variable d5 equal -(v_pxz1-8.76906941991067e-10)/(v_delta/v_len0)*0.0001
variable d6 equal -(v_pxy1-6.48141221013417e-09)/(v_delta/v_len0)*0.0001

displace_atoms all random 1e-05 1e-05 1e-05 87287 units box

# Write restart
unfix 3
write_restart restart.equil

# uxx Perturbation

variable dir equal 1
include displace.mod
# NOTE: This script should not need to be
# modified. See in.elastic for more info.
#
# Find which reference length to use

variable len0 equal 27.9235627345524

# Reset box and simulation parameters

clear
box tilt large
read_restart restart.equil
  triclinic box = (-13.9618 -13.9618 -13.9618) to (13.9618 13.9618 13.9618) with tilt (0 0 0)
  768 atoms
include potential.mod
# NOTE: This script can be modified for different pair styles
# See in.elastic for more info.

# Choose potential
pair_style     rebo
pair_coeff     * * CH.airebo  C
Reading potential file CH.airebo with DATE: 2011-10-25

#pair_style     lcbop
#pair_coeff     C.lcbop
#pair_style     tersoff
#pair_coeff     BNC.tersoff

# Setup neighbor style
neighbor 1.0 nsq
neigh_modify once no every 1 delay 0 check yes

# Setup minimization style
min_style	     cg
min_modify	     dmax 0.01 line quadratic

# Setup output
thermo		500
thermo_style custom step temp pe press pxx pyy pzz pxy pxz pyz lx ly lz vol
thermo_modify norm no

# Output
dump            1 all xtc 100 traj.xtc
dump            2 all xyz 2000 relaxed.xyz
#dump            4 all atom 10 dump.atom

# Negative deformation

variable delta equal -1.0e-5*27.9235627345524
variable deltaxy equal -1.0e-5*xy
variable deltaxz equal -1.0e-5*xz
variable deltayz equal -1.0e-5*yz
change_box all x delta 0 -0.000279235627345524 xy delta -0 xz delta -0 remap units box
  triclinic box = (-13.9618 -13.9618 -13.9618) to (13.9615 13.9618 13.9618) with tilt (0 0 0)
  triclinic box = (-13.9618 -13.9618 -13.9618) to (13.9615 13.9618 13.9618) with tilt (0 0 0)
  triclinic box = (-13.9618 -13.9618 -13.9618) to (13.9615 13.9618 13.9618) with tilt (0 0 0)

# Relax atoms positions

minimize 0 1e-10 10000000 10000000
  1 neighbor list requests
  update every 1 steps, delay 0 steps, check yes
Step Temp PotEng Press Pxx Pyy Pzz Pxy Pxz Pyz Lx Ly Lz Volume
31436            0   -5815.0326    8.2538803    18.053544    3.1545307    3.5535659  -0.14009009 -0.0047195089  0.041939958    27.923283    27.923563    27.923563    21772.492
Loop time of 0.232379 on 16 procs (16 MPI x 1 OpenMP) for 356 steps with 768 atoms

Minimization stats:
  Stopping criterion = force tolerance
  Energy initial, next-to-last, final =
  Force two-norm initial, final = 0.0216459 9.83083e-11
  Force max component initial, final = 0.00161876 8.62126e-12
  Final line search alpha, max atom move = 1 8.62126e-12
  Iterations, force evaluations = 356 712

Pair  time (%) = 0.174433 (75.0638)
Neigh time (%) = 0 (0)
Comm  time (%) = 0.0409667 (17.6292)
Outpt time (%) = 0.00081338 (0.350023)
Other time (%) = 0.0161666 (6.95697)

# Obtain new stress tensor

variable tmp equal pxx
variable pxx1 equal 2.86590211490391
variable tmp equal pyy
variable pyy1 equal 0.694544407190025
variable tmp equal pzz
variable pzz1 equal 0.694545956715446
variable tmp equal pxy
variable pxy1 equal -7.38486295018504e-09
variable tmp equal pxz
variable pxz1 equal 6.38997505012559e-09
variable tmp equal pyz
variable pyz1 equal -5.2728339759063e-09

# Compute elastic constant from pressure tensor

variable C1neg equal 28.6590211396397
variable C2neg equal 6.94544404372054
variable C3neg equal 6.94545959347768
variable C4neg equal -6.15454472353472e-08
variable C5neg equal 5.51306810813452e-08
variable C6neg equal -1.38662751603192e-07

# Reset box and simulation parameters

clear
box tilt large
read_restart restart.equil
  triclinic box = (-13.9618 -13.9618 -13.9618) to (13.9618 13.9618 13.9618) with tilt (0 0 0)
  768 atoms
include potential.mod
# NOTE: This script can be modified for different pair styles
# See in.elastic for more info.

# Choose potential
pair_style     rebo
pair_coeff     * * CH.airebo  C
Reading potential file CH.airebo with DATE: 2011-10-25

#pair_style     lcbop
#pair_coeff     C.lcbop
#pair_style     tersoff
#pair_coeff     BNC.tersoff

# Setup neighbor style
neighbor 1.0 nsq
neigh_modify once no every 1 delay 0 check yes

# Setup minimization style
min_style	     cg
min_modify	     dmax 0.01 line quadratic

# Setup output
thermo		500
thermo_style custom step temp pe press pxx pyy pzz pxy pxz pyz lx ly lz vol
thermo_modify norm no

# Output
dump            1 all xtc 100 traj.xtc
dump            2 all xyz 2000 relaxed.xyz
#dump            4 all atom 10 dump.atom

# Positive deformation

variable delta equal 1.0e-5*27.9235627345524
variable deltaxy equal 1.0e-5*xy
variable deltaxz equal 1.0e-5*xz
variable deltayz equal 1.0e-5*yz
change_box all x delta 0 0.000279235627345524 xy delta 0 xz delta 0 remap units box
  triclinic box = (-13.9618 -13.9618 -13.9618) to (13.9621 13.9618 13.9618) with tilt (0 0 0)
  triclinic box = (-13.9618 -13.9618 -13.9618) to (13.9621 13.9618 13.9618) with tilt (0 0 0)
  triclinic box = (-13.9618 -13.9618 -13.9618) to (13.9621 13.9618 13.9618) with tilt (0 0 0)

# Relax atoms positions

minimize 0 1e-10 10000000 10000000
  1 neighbor list requests
  update every 1 steps, delay 0 steps, check yes
Step Temp PotEng Press Pxx Pyy Pzz Pxy Pxz Pyz Lx Ly Lz Volume
31436            0   -5815.0326   -8.6168545   -18.620487   -3.8145614   -3.4155155  -0.14005223 -0.004767962  0.041949799    27.923842    27.923563    27.923563    21772.928
Loop time of 0.231447 on 16 procs (16 MPI x 1 OpenMP) for 357 steps with 768 atoms

Minimization stats:
  Stopping criterion = force tolerance
  Energy initial, next-to-last, final =
  Force two-norm initial, final = 0.0219011 8.9917e-11
  Force max component initial, final = 0.00163195 1.29361e-11
  Final line search alpha, max atom move = 1 1.29361e-11
  Iterations, force evaluations = 357 714

Pair  time (%) = 0.173844 (75.1117)
Neigh time (%) = 0 (0)
Comm  time (%) = 0.0406649 (17.5698)
Outpt time (%) = 0.000843808 (0.36458)
Other time (%) = 0.0160946 (6.95391)

# Obtain new stress tensor

variable tmp equal pe
variable e1 equal -5815.03265140877
variable tmp equal press
variable p1 equal -1.41842465080645
variable tmp equal pxx
variable pxx1 equal -2.86603783524342
variable tmp equal pyy
variable pyy1 equal -0.694618835145381
variable tmp equal pzz
variable pzz1 equal -0.694617282030551
variable tmp equal pxy
variable pxy1 equal -7.41948530941089e-09
variable tmp equal pxz
variable pxz1 equal 6.10162179591605e-09
variable tmp equal pyz
variable pyz1 equal -5.81948273348706e-09

# Compute elastic constant from pressure tensor

variable C1pos equal 28.6603783618336
variable C2pos equal 6.94618837963352
variable C3pos equal 6.94617279398229
variable C4pos equal 6.70119348111548e-08
variable C5pos equal -5.22471485392498e-08
variable C6pos equal 1.39008975195451e-07

# Combine positive and negative

variable C11 equal 0.5*(28.6590211396397+28.6603783618336)
variable C21 equal 0.5*(6.94544404372054+6.94618837963352)
variable C31 equal 0.5*(6.94545959347768+6.94617279398229)
variable C41 equal 0.5*(-6.15454472353472e-08+6.70119348111548e-08)
variable C51 equal 0.5*(5.51306810813452e-08+-5.22471485392498e-08)
variable C61 equal 0.5*(-1.38662751603192e-07+1.39008975195451e-07)

# Delete dir to make sure it is not reused

variable dir delete

# uyy Perturbation

variable dir equal 2
include displace.mod
# NOTE: This script should not need to be
# modified. See in.elastic for more info.
#
# Find which reference length to use

variable len0 equal 27.9235627345443

# Reset box and simulation parameters

clear
box tilt large
read_restart restart.equil
  triclinic box = (-13.9618 -13.9618 -13.9618) to (13.9618 13.9618 13.9618) with tilt (0 0 0)
  768 atoms
include potential.mod
# NOTE: This script can be modified for different pair styles
# See in.elastic for more info.

# Choose potential
pair_style     rebo
pair_coeff     * * CH.airebo  C
Reading potential file CH.airebo with DATE: 2011-10-25

#pair_style     lcbop
#pair_coeff     C.lcbop
#pair_style     tersoff
#pair_coeff     BNC.tersoff

# Setup neighbor style
neighbor 1.0 nsq
neigh_modify once no every 1 delay 0 check yes

# Setup minimization style
min_style	     cg
min_modify	     dmax 0.01 line quadratic

# Setup output
thermo		500
thermo_style custom step temp pe press pxx pyy pzz pxy pxz pyz lx ly lz vol
thermo_modify norm no

# Output
dump            1 all xtc 100 traj.xtc
dump            2 all xyz 2000 relaxed.xyz
#dump            4 all atom 10 dump.atom

# Negative deformation

variable delta equal -1.0e-5*27.9235627345443
variable deltaxy equal -1.0e-5*xy
variable deltaxz equal -1.0e-5*xz
variable deltayz equal -1.0e-5*yz
change_box all y delta 0 -0.000279235627345443 yz delta -0 remap units box
  triclinic box = (-13.9618 -13.9618 -13.9618) to (13.9618 13.9615 13.9618) with tilt (0 0 0)
  triclinic box = (-13.9618 -13.9618 -13.9618) to (13.9618 13.9615 13.9618) with tilt (0 0 0)

# Relax atoms positions

minimize 0 1e-10 10000000 10000000
  1 neighbor list requests
  update every 1 steps, delay 0 steps, check yes
Step Temp PotEng Press Pxx Pyy Pzz Pxy Pxz Pyz Lx Ly Lz Volume
31436            0   -5815.0326    8.2538745    3.2005938    18.007432    3.5535978  -0.14007489 -0.0047510557   0.04195399    27.923563    27.923283    27.923563    21772.492
Loop time of 0.229807 on 16 procs (16 MPI x 1 OpenMP) for 356 steps with 768 atoms

Minimization stats:
  Stopping criterion = force tolerance
  Energy initial, next-to-last, final =
  Force two-norm initial, final = 0.0215773 9.7908e-11
  Force max component initial, final = 0.00159762 1.06994e-11
  Final line search alpha, max atom move = 1 1.06994e-11
  Iterations, force evaluations = 356 712

Pair  time (%) = 0.173314 (75.4171)
Neigh time (%) = 0 (0)
Comm  time (%) = 0.0400994 (17.4491)
Outpt time (%) = 0.000799492 (0.347896)
Other time (%) = 0.0155945 (6.78592)

# Obtain new stress tensor

variable tmp equal pxx
variable pxx1 equal 0.694545972582051
variable tmp equal pyy
variable pyy1 equal 2.86590217759133
variable tmp equal pzz
variable pzz1 equal 0.694544329064005
variable tmp equal pxy
variable pxy1 equal -6.73402247529396e-09
variable tmp equal pxz
variable pxz1 equal 6.4250072347552e-09
variable tmp equal pyz
variable pyz1 equal -4.72751488550123e-09

# Compute elastic constant from pressure tensor

variable C1neg equal 6.94545971642106
variable C2neg equal 28.6590217477336
variable C3neg equal 6.94544331696327
variable C4neg equal -5.60922563312965e-08
variable C5neg equal 5.54810029276413e-08
variable C6neg equal -1.32154346854281e-07

# Reset box and simulation parameters

clear
box tilt large
read_restart restart.equil
  triclinic box = (-13.9618 -13.9618 -13.9618) to (13.9618 13.9618 13.9618) with tilt (0 0 0)
  768 atoms
include potential.mod
# NOTE: This script can be modified for different pair styles
# See in.elastic for more info.

# Choose potential
pair_style     rebo
pair_coeff     * * CH.airebo  C
Reading potential file CH.airebo with DATE: 2011-10-25

#pair_style     lcbop
#pair_coeff     C.lcbop
#pair_style     tersoff
#pair_coeff     BNC.tersoff

# Setup neighbor style
neighbor 1.0 nsq
neigh_modify once no every 1 delay 0 check yes

# Setup minimization style
min_style	     cg
min_modify	     dmax 0.01 line quadratic

# Setup output
thermo		500
thermo_style custom step temp pe press pxx pyy pzz pxy pxz pyz lx ly lz vol
thermo_modify norm no

# Output
dump            1 all xtc 100 traj.xtc
dump            2 all xyz 2000 relaxed.xyz
#dump            4 all atom 10 dump.atom

# Positive deformation

variable delta equal 1.0e-5*27.9235627345443
variable deltaxy equal 1.0e-5*xy
variable deltaxz equal 1.0e-5*xz
variable deltayz equal 1.0e-5*yz
change_box all y delta 0 0.000279235627345443 yz delta 0 remap units box
  triclinic box = (-13.9618 -13.9618 -13.9618) to (13.9618 13.9621 13.9618) with tilt (0 0 0)
  triclinic box = (-13.9618 -13.9618 -13.9618) to (13.9618 13.9621 13.9618) with tilt (0 0 0)

# Relax atoms positions

minimize 0 1e-10 10000000 10000000
  1 neighbor list requests
  update every 1 steps, delay 0 steps, check yes
Step Temp PotEng Press Pxx Pyy Pzz Pxy Pxz Pyz Lx Ly Lz Volume
31436            0   -5815.0326   -8.6168488   -3.7684993   -18.666549    -3.415498  -0.14006743 -0.0047364184  0.041935768    27.923563    27.923842    27.923563    21772.928
Loop time of 0.230028 on 16 procs (16 MPI x 1 OpenMP) for 356 steps with 768 atoms

Minimization stats:
  Stopping criterion = force tolerance
  Energy initial, next-to-last, final =
  Force two-norm initial, final = 0.0219686 9.88497e-11
  Force max component initial, final = 0.00155941 1.34909e-11
  Final line search alpha, max atom move = 1 1.34909e-11
  Iterations, force evaluations = 356 712

Pair  time (%) = 0.173601 (75.4698)
Neigh time (%) = 0 (0)
Comm  time (%) = 0.0400005 (17.3894)
Outpt time (%) = 0.000751972 (0.326905)
Other time (%) = 0.0156738 (6.81389)

# Obtain new stress tensor

variable tmp equal pe
variable e1 equal -5815.03265140877
variable tmp equal press
variable p1 equal -1.41842465140175
variable tmp equal pxx
variable pxx1 equal -0.694617267131877
variable tmp equal pyy
variable pyy1 equal -2.86603777342975
variable tmp equal pzz
variable pzz1 equal -0.694618913643617
variable tmp equal pxy
variable pxy1 equal -6.53833891539495e-09
variable tmp equal pxz
variable pxz1 equal 7.16681419538733e-09
variable tmp equal pyz
variable pyz1 equal -5.20667685328443e-09

# Compute elastic constant from pressure tensor

variable C1pos equal 6.94617268071822
variable C2pos equal 28.6603777624772
variable C3pos equal 6.94618911011295
variable C4pos equal 6.08838760091285e-08
variable C5pos equal -6.28990725339626e-08
variable C6pos equal 1.30197511255291e-07

# Combine positive and negative

variable C12 equal 0.5*(6.94545971642106+6.94617268071822)
variable C22 equal 0.5*(28.6590217477336+28.6603777624772)
variable C32 equal 0.5*(6.94544331696327+6.94618911011295)
variable C42 equal 0.5*(-5.60922563312965e-08+6.08838760091285e-08)
variable C52 equal 0.5*(5.54810029276413e-08+-6.28990725339626e-08)
variable C62 equal 0.5*(-1.32154346854281e-07+1.30197511255291e-07)

# Delete dir to make sure it is not reused

variable dir delete

# uzz Perturbation

variable dir equal 3
include displace.mod
# NOTE: This script should not need to be
# modified. See in.elastic for more info.
#
# Find which reference length to use

variable len0 equal 27.9235627345545

# Reset box and simulation parameters

clear
box tilt large
read_restart restart.equil
  triclinic box = (-13.9618 -13.9618 -13.9618) to (13.9618 13.9618 13.9618) with tilt (0 0 0)
  768 atoms
include potential.mod
# NOTE: This script can be modified for different pair styles
# See in.elastic for more info.

# Choose potential
pair_style     rebo
pair_coeff     * * CH.airebo  C
Reading potential file CH.airebo with DATE: 2011-10-25

#pair_style     lcbop
#pair_coeff     C.lcbop
#pair_style     tersoff
#pair_coeff     BNC.tersoff

# Setup neighbor style
neighbor 1.0 nsq
neigh_modify once no every 1 delay 0 check yes

# Setup minimization style
min_style	     cg
min_modify	     dmax 0.01 line quadratic

# Setup output
thermo		500
thermo_style custom step temp pe press pxx pyy pzz pxy pxz pyz lx ly lz vol
thermo_modify norm no

# Output
dump            1 all xtc 100 traj.xtc
dump            2 all xyz 2000 relaxed.xyz
#dump            4 all atom 10 dump.atom

# Negative deformation

variable delta equal -1.0e-5*27.9235627345545
variable deltaxy equal -1.0e-5*xy
variable deltaxz equal -1.0e-5*xz
variable deltayz equal -1.0e-5*yz
change_box all z delta 0 -0.000279235627345545 remap units box
  triclinic box = (-13.9618 -13.9618 -13.9618) to (13.9618 13.9618 13.9615) with tilt (0 0 0)

# Relax atoms positions

minimize 0 1e-10 10000000 10000000
  1 neighbor list requests
  update every 1 steps, delay 0 steps, check yes
Step Temp PotEng Press Pxx Pyy Pzz Pxy Pxz Pyz Lx Ly Lz Volume
31436            0   -5815.0326    8.2538892     3.200609    3.1545038    18.406555  -0.14005485 -0.0047614845  0.041943424    27.923563    27.923563    27.923283    21772.492
Loop time of 0.232707 on 16 procs (16 MPI x 1 OpenMP) for 357 steps with 768 atoms

Minimization stats:
  Stopping criterion = force tolerance
  Energy initial, next-to-last, final =
  Force two-norm initial, final = 0.0219282 8.87057e-11
  Force max component initial, final = 0.0016867 1.05065e-11
  Final line search alpha, max atom move = 1 1.05065e-11
  Iterations, force evaluations = 357 714

Pair  time (%) = 0.173709 (74.6471)
Neigh time (%) = 0 (0)
Comm  time (%) = 0.041925 (18.0163)
Outpt time (%) = 0.000778034 (0.334341)
Other time (%) = 0.0162947 (7.00227)

# Obtain new stress tensor

variable tmp equal pxx
variable pxx1 equal 0.694544343108675
variable tmp equal pyy
variable pyy1 equal 0.694546038275992
variable tmp equal pzz
variable pzz1 equal 2.8659020979701
variable tmp equal pxy
variable pxy1 equal -8.80235925661581e-09
variable tmp equal pxz
variable pxz1 equal 6.54382908486084e-09
variable tmp equal pyz
variable pyz1 equal -5.44258647875937e-09

# Compute elastic constant from pressure tensor

variable C1neg equal 6.9454434216873
variable C2neg equal 6.94546035458021
variable C3neg equal 28.6590210060242
variable C4neg equal -6.32429722638779e-08
variable C5neg equal 5.66692214286977e-08
variable C6neg equal -1.528377146675e-07

# Reset box and simulation parameters

clear
box tilt large
read_restart restart.equil
  triclinic box = (-13.9618 -13.9618 -13.9618) to (13.9618 13.9618 13.9618) with tilt (0 0 0)
  768 atoms
include potential.mod
# NOTE: This script can be modified for different pair styles
# See in.elastic for more info.

# Choose potential
pair_style     rebo
pair_coeff     * * CH.airebo  C
Reading potential file CH.airebo with DATE: 2011-10-25

#pair_style     lcbop
#pair_coeff     C.lcbop
#pair_style     tersoff
#pair_coeff     BNC.tersoff

# Setup neighbor style
neighbor 1.0 nsq
neigh_modify once no every 1 delay 0 check yes

# Setup minimization style
min_style	     cg
min_modify	     dmax 0.01 line quadratic

# Setup output
thermo		500
thermo_style custom step temp pe press pxx pyy pzz pxy pxz pyz lx ly lz vol
thermo_modify norm no

# Output
dump            1 all xtc 100 traj.xtc
dump            2 all xyz 2000 relaxed.xyz
#dump            4 all atom 10 dump.atom

# Positive deformation

variable delta equal 1.0e-5*27.9235627345545
variable deltaxy equal 1.0e-5*xy
variable deltaxz equal 1.0e-5*xz
variable deltayz equal 1.0e-5*yz
change_box all z delta 0 0.000279235627345545 remap units box
  triclinic box = (-13.9618 -13.9618 -13.9618) to (13.9618 13.9618 13.9621) with tilt (0 0 0)

# Relax atoms positions

minimize 0 1e-10 10000000 10000000
  1 neighbor list requests
  update every 1 steps, delay 0 steps, check yes
Step Temp PotEng Press Pxx Pyy Pzz Pxy Pxz Pyz Lx Ly Lz Volume
31436            0   -5815.0326   -8.6168635   -3.7684652   -3.8145839   -18.267541  -0.14008747 -0.0047259908  0.041946334    27.923563    27.923563    27.923842    21772.928
Loop time of 0.232536 on 16 procs (16 MPI x 1 OpenMP) for 357 steps with 768 atoms

Minimization stats:
  Stopping criterion = force tolerance
  Energy initial, next-to-last, final =
  Force two-norm initial, final = 0.0216185 8.9611e-11
  Force max component initial, final = 0.00156133 9.45322e-12
  Final line search alpha, max atom move = 1 9.45322e-12
  Iterations, force evaluations = 357 714

Pair  time (%) = 0.173678 (74.6886)
Neigh time (%) = 0 (0)
Comm  time (%) = 0.0416962 (17.9311)
Outpt time (%) = 0.000753433 (0.324007)
Other time (%) = 0.0164084 (7.05631)

# Obtain new stress tensor

variable tmp equal pe
variable e1 equal -5815.03265140877
variable tmp equal press
variable p1 equal -1.41842465073528
variable tmp equal pxx
variable pxx1 equal -0.694618899030423
variable tmp equal pyy
variable pyy1 equal -0.694617202279548
variable tmp equal pzz
variable pzz1 equal -2.86603785089586
variable tmp equal pxy
variable pxy1 equal -8.24769233395992e-09
variable tmp equal pxz
variable pxz1 equal 6.58552684719138e-09
variable tmp equal pyz
variable pyz1 equal -4.99342432840869e-09

# Compute elastic constant from pressure tensor

variable C1pos equal 6.94618899970368
variable C2pos equal 6.94617205097519
variable C3pos equal 28.6603784826354
variable C4pos equal 5.87513507603711e-08
variable C5pos equal -5.70861990520031e-08
variable C6pos equal 1.47291045440941e-07

# Combine positive and negative

variable C13 equal 0.5*(6.9454434216873+6.94618899970368)
variable C23 equal 0.5*(6.94546035458021+6.94617205097519)
variable C33 equal 0.5*(28.6590210060242+28.6603784826354)
variable C43 equal 0.5*(-6.32429722638779e-08+5.87513507603711e-08)
variable C53 equal 0.5*(5.66692214286977e-08+-5.70861990520031e-08)
variable C63 equal 0.5*(-1.528377146675e-07+1.47291045440941e-07)

# Delete dir to make sure it is not reused

variable dir delete

# uyz Perturbation

variable dir equal 4
include displace.mod
# NOTE: This script should not need to be
# modified. See in.elastic for more info.
#
# Find which reference length to use

variable len0 equal 27.9235627345545

# Reset box and simulation parameters

clear
box tilt large
read_restart restart.equil
  triclinic box = (-13.9618 -13.9618 -13.9618) to (13.9618 13.9618 13.9618) with tilt (0 0 0)
  768 atoms
include potential.mod
# NOTE: This script can be modified for different pair styles
# See in.elastic for more info.

# Choose potential
pair_style     rebo
pair_coeff     * * CH.airebo  C
Reading potential file CH.airebo with DATE: 2011-10-25

#pair_style     lcbop
#pair_coeff     C.lcbop
#pair_style     tersoff
#pair_coeff     BNC.tersoff

# Setup neighbor style
neighbor 1.0 nsq
neigh_modify once no every 1 delay 0 check yes

# Setup minimization style
min_style	     cg
min_modify	     dmax 0.01 line quadratic

# Setup output
thermo		500
thermo_style custom step temp pe press pxx pyy pzz pxy pxz pyz lx ly lz vol
thermo_modify norm no

# Output
dump            1 all xtc 100 traj.xtc
dump            2 all xyz 2000 relaxed.xyz
#dump            4 all atom 10 dump.atom

# Negative deformation

variable delta equal -1.0e-5*27.9235627345545
variable deltaxy equal -1.0e-5*xy
variable deltaxz equal -1.0e-5*xz
variable deltayz equal -1.0e-5*yz
change_box all yz delta -0.000279235627345545 remap units box
  triclinic box = (-13.9618 -13.9618 -13.9618) to (13.9618 13.9618 13.9618) with tilt (0 0 -0.000279236)

# Relax atoms positions

minimize 0 1e-10 10000000 10000000
  1 neighbor list requests
  update every 1 steps, delay 0 steps, check yes
Step Temp PotEng Press Pxx Pyy Pzz Pxy Pxz Pyz Lx Ly Lz Volume
31436            0   -5815.0326  -0.18172553  -0.28405353  -0.33012986  0.069006784  -0.14007246 -0.0047293356     8.676128    27.923563    27.923563    27.923563     21772.71
Loop time of 0.223579 on 16 procs (16 MPI x 1 OpenMP) for 343 steps with 768 atoms

Minimization stats:
  Stopping criterion = force tolerance
  Energy initial, next-to-last, final =
  Force two-norm initial, final = 0.0215221 9.51224e-11
  Force max component initial, final = 0.00154639 1.34355e-11
  Final line search alpha, max atom move = 1 1.34355e-11
  Iterations, force evaluations = 343 686

Pair  time (%) = 0.166812 (74.6099)
Neigh time (%) = 0 (0)
Comm  time (%) = 0.0401971 (17.9789)
Outpt time (%) = 0.000742584 (0.332136)
Other time (%) = 0.0158271 (7.07899)

# Obtain new stress tensor

variable tmp equal pxx
variable pxx1 equal -3.15943071683033e-05
variable tmp equal pyy
variable pyy1 equal -0.000102765776140541
variable tmp equal pzz
variable pzz1 equal -7.08428702683944e-05
variable tmp equal pxy
variable pxy1 equal -4.53191677406727e-10
variable tmp equal pxz
variable pxz1 equal -1.86270014509543e-11
variable tmp equal pyz
variable pyz1 equal 3.61225488797475

# Compute elastic constant from pressure tensor

variable C1neg equal -0.000315952471129397
variable C2neg equal -0.0010276859411175
variable C3neg equal -0.000708402379462999
variable C4neg equal 36.1225488709304
variable C5neg equal -8.95533943442021e-09
variable C6neg equal -6.9346038875409e-08

# Reset box and simulation parameters

clear
box tilt large
read_restart restart.equil
  triclinic box = (-13.9618 -13.9618 -13.9618) to (13.9618 13.9618 13.9618) with tilt (0 0 0)
  768 atoms
include potential.mod
# NOTE: This script can be modified for different pair styles
# See in.elastic for more info.

# Choose potential
pair_style     rebo
pair_coeff     * * CH.airebo  C
Reading potential file CH.airebo with DATE: 2011-10-25

#pair_style     lcbop
#pair_coeff     C.lcbop
#pair_style     tersoff
#pair_coeff     BNC.tersoff

# Setup neighbor style
neighbor 1.0 nsq
neigh_modify once no every 1 delay 0 check yes

# Setup minimization style
min_style	     cg
min_modify	     dmax 0.01 line quadratic

# Setup output
thermo		500
thermo_style custom step temp pe press pxx pyy pzz pxy pxz pyz lx ly lz vol
thermo_modify norm no

# Output
dump            1 all xtc 100 traj.xtc
dump            2 all xyz 2000 relaxed.xyz
#dump            4 all atom 10 dump.atom

# Positive deformation

variable delta equal 1.0e-5*27.9235627345545
variable deltaxy equal 1.0e-5*xy
variable deltaxz equal 1.0e-5*xz
variable deltayz equal 1.0e-5*yz
change_box all yz delta 0.000279235627345545 remap units box
  triclinic box = (-13.9618 -13.9618 -13.9618) to (13.9618 13.9618 13.9618) with tilt (0 0 0.000279236)

# Relax atoms positions

minimize 0 1e-10 10000000 10000000
  1 neighbor list requests
  update every 1 steps, delay 0 steps, check yes
Step Temp PotEng Press Pxx Pyy Pzz Pxy Pxz Pyz Lx Ly Lz Volume
31436            0   -5815.0326  -0.18172652  -0.28404285   -0.3301464  0.069009694  -0.14006986 -0.0047581382   -8.5922382    27.923563    27.923563    27.923563     21772.71
Loop time of 0.223361 on 16 procs (16 MPI x 1 OpenMP) for 343 steps with 768 atoms

Minimization stats:
  Stopping criterion = force tolerance
  Energy initial, next-to-last, final =
  Force two-norm initial, final = 0.0215112 9.39643e-11
  Force max component initial, final = 0.0017461 8.85111e-12
  Final line search alpha, max atom move = 1 8.85111e-12
  Iterations, force evaluations = 343 686

Pair  time (%) = 0.166912 (74.7272)
Neigh time (%) = 0 (0)
Comm  time (%) = 0.0398578 (17.8446)
Outpt time (%) = 0.000898659 (0.402334)
Other time (%) = 0.0156932 (7.02594)

# Obtain new stress tensor

variable tmp equal pe
variable e1 equal -5815.03265135807
variable tmp equal press
variable p1 equal -6.84035797463397e-05
variable tmp equal pxx
variable pxx1 equal -3.15994168815908e-05
variable tmp equal pyy
variable pyy1 equal -0.000102765696403904
variable tmp equal pzz
variable pzz1 equal -7.08456259535248e-05
variable tmp equal pxy
variable pxy1 equal 2.28229786199061e-10
variable tmp equal pxz
variable pxz1 equal -4.02277873440785e-10
variable tmp equal pyz
variable pyz1 equal -3.61225488985698

# Compute elastic constant from pressure tensor

variable C1pos equal 0.000316003568262272
variable C2pos equal 0.00102768514375113
variable C3pos equal 0.000708429936314303
variable C4pos equal 36.1225489073869
variable C5pos equal 1.27918481543185e-08
variable C6pos equal 6.25318242393511e-08

# Combine positive and negative

variable C14 equal 0.5*(-0.000315952471129397+0.000316003568262272)
variable C24 equal 0.5*(-0.0010276859411175+0.00102768514375113)
variable C34 equal 0.5*(-0.000708402379462999+0.000708429936314303)
variable C44 equal 0.5*(36.1225488709304+36.1225489073869)
variable C54 equal 0.5*(-8.95533943442021e-09+1.27918481543185e-08)
variable C64 equal 0.5*(-6.9346038875409e-08+6.25318242393511e-08)

# Delete dir to make sure it is not reused

variable dir delete

# uxz Perturbation

variable dir equal 5
include displace.mod
# NOTE: This script should not need to be
# modified. See in.elastic for more info.
#
# Find which reference length to use

variable len0 equal 27.9235627345545

# Reset box and simulation parameters

clear
box tilt large
read_restart restart.equil
  triclinic box = (-13.9618 -13.9618 -13.9618) to (13.9618 13.9618 13.9618) with tilt (0 0 0)
  768 atoms
include potential.mod
# NOTE: This script can be modified for different pair styles
# See in.elastic for more info.

# Choose potential
pair_style     rebo
pair_coeff     * * CH.airebo  C
Reading potential file CH.airebo with DATE: 2011-10-25

#pair_style     lcbop
#pair_coeff     C.lcbop
#pair_style     tersoff
#pair_coeff     BNC.tersoff

# Setup neighbor style
neighbor 1.0 nsq
neigh_modify once no every 1 delay 0 check yes

# Setup minimization style
min_style	     cg
min_modify	     dmax 0.01 line quadratic

# Setup output
thermo		500
thermo_style custom step temp pe press pxx pyy pzz pxy pxz pyz lx ly lz vol
thermo_modify norm no

# Output
dump            1 all xtc 100 traj.xtc
dump            2 all xyz 2000 relaxed.xyz
#dump            4 all atom 10 dump.atom

# Negative deformation

variable delta equal -1.0e-5*27.9235627345545
variable deltaxy equal -1.0e-5*xy
variable deltaxz equal -1.0e-5*xz
variable deltayz equal -1.0e-5*yz
change_box all xz delta -0.000279235627345545 remap units box
  triclinic box = (-13.9618 -13.9618 -13.9618) to (13.9618 13.9618 13.9618) with tilt (0 -0.000279236 0)

# Relax atoms positions

minimize 0 1e-10 10000000 10000000
  1 neighbor list requests
  update every 1 steps, delay 0 steps, check yes
Step Temp PotEng Press Pxx Pyy Pzz Pxy Pxz Pyz Lx Ly Lz Volume
31436            0   -5815.0326  -0.18172626  -0.28404384  -0.33014272  0.069007781  -0.14007714    8.6294315   0.04195928    27.923563    27.923563    27.923563     21772.71
Loop time of 0.223141 on 16 procs (16 MPI x 1 OpenMP) for 343 steps with 768 atoms

Minimization stats:
  Stopping criterion = force tolerance
  Energy initial, next-to-last, final =
  Force two-norm initial, final = 0.0214451 9.41915e-11
  Force max component initial, final = 0.00172531 1.08613e-11
  Final line search alpha, max atom move = 1 1.08613e-11
  Iterations, force evaluations = 343 686

Pair  time (%) = 0.166902 (74.7964)
Neigh time (%) = 0 (0)
Comm  time (%) = 0.0399568 (17.9065)
Outpt time (%) = 0.000776216 (0.347859)
Other time (%) = 0.0155066 (6.94921)

# Obtain new stress tensor

variable tmp equal pxx
variable pxx1 equal -0.000132209907650477
variable tmp equal pyy
variable pyy1 equal -3.155802820723e-05
variable tmp equal pzz
variable pzz1 equal -4.14397875717402e-05
variable tmp equal pxy
variable pxy1 equal 6.67042725643648e-10
variable tmp equal pxz
variable pxz1 equal 3.61225488739461
variable tmp equal pyz
variable pyz1 equal 1.18158913151383e-09

# Compute elastic constant from pressure tensor

variable C1neg equal -0.00132210847595113
variable C2neg equal -0.00031560846178439
variable C3neg equal -0.000414371552496457
variable C4neg equal 2.99878383885412e-09
variable C5neg equal 36.122548865177
variable C6neg equal -5.81436948449052e-08

# Reset box and simulation parameters

clear
box tilt large
read_restart restart.equil
  triclinic box = (-13.9618 -13.9618 -13.9618) to (13.9618 13.9618 13.9618) with tilt (0 0 0)
  768 atoms
include potential.mod
# NOTE: This script can be modified for different pair styles
# See in.elastic for more info.

# Choose potential
pair_style     rebo
pair_coeff     * * CH.airebo  C
Reading potential file CH.airebo with DATE: 2011-10-25

#pair_style     lcbop
#pair_coeff     C.lcbop
#pair_style     tersoff
#pair_coeff     BNC.tersoff

# Setup neighbor style
neighbor 1.0 nsq
neigh_modify once no every 1 delay 0 check yes

# Setup minimization style
min_style	     cg
min_modify	     dmax 0.01 line quadratic

# Setup output
thermo		500
thermo_style custom step temp pe press pxx pyy pzz pxy pxz pyz lx ly lz vol
thermo_modify norm no

# Output
dump            1 all xtc 100 traj.xtc
dump            2 all xyz 2000 relaxed.xyz
#dump            4 all atom 10 dump.atom

# Positive deformation

variable delta equal 1.0e-5*27.9235627345545
variable deltaxy equal 1.0e-5*xy
variable deltaxz equal 1.0e-5*xz
variable deltayz equal 1.0e-5*yz
change_box all xz delta 0.000279235627345545 remap units box
  triclinic box = (-13.9618 -13.9618 -13.9618) to (13.9618 13.9618 13.9618) with tilt (0 0.000279236 0)

# Relax atoms positions

minimize 0 1e-10 10000000 10000000
  1 neighbor list requests
  update every 1 steps, delay 0 steps, check yes
Step Temp PotEng Press Pxx Pyy Pzz Pxy Pxz Pyz Lx Ly Lz Volume
31436            0   -5815.0326  -0.18172579  -0.28409248  -0.33012818  0.069043275  -0.14006518   -8.6389189  0.041930477    27.923563    27.923563    27.923563     21772.71
Loop time of 0.224143 on 16 procs (16 MPI x 1 OpenMP) for 343 steps with 768 atoms

Minimization stats:
  Stopping criterion = force tolerance
  Energy initial, next-to-last, final =
  Force two-norm initial, final = 0.0215879 9.24232e-11
  Force max component initial, final = 0.00148944 8.2826e-12
  Final line search alpha, max atom move = 1 8.2826e-12
  Iterations, force evaluations = 343 686

Pair  time (%) = 0.167038 (74.523)
Neigh time (%) = 0 (0)
Comm  time (%) = 0.0404228 (18.0344)
Outpt time (%) = 0.000779673 (0.347847)
Other time (%) = 0.0159024 (7.09475)

# Obtain new stress tensor

variable tmp equal pe
variable e1 equal -5815.03265135807
variable tmp equal press
variable p1 equal -6.84029048824521e-05
variable tmp equal pxx
variable pxx1 equal -0.000132210220910891
variable tmp equal pyy
variable pyy1 equal -3.15573409035554e-05
variable tmp equal pzz
variable pzz1 equal -4.14411528329097e-05
variable tmp equal pxy
variable pxy1 equal 4.70315447161639e-10
variable tmp equal pxz
variable pxz1 equal -3.61225488731827
variable tmp equal pyz
variable pyz1 equal 1.93915254841913e-09

# Compute elastic constant from pressure tensor

variable C1pos equal 0.00132211160855527
variable C2pos equal 0.000315601588747644
variable C3pos equal 0.000414385205108152
variable C4pos equal -1.05744180079071e-08
variable C5pos equal 36.1225488819518
variable C6pos equal 6.01109676297253e-08

# Combine positive and negative

variable C15 equal 0.5*(-0.00132210847595113+0.00132211160855527)
variable C25 equal 0.5*(-0.00031560846178439+0.000315601588747644)
variable C35 equal 0.5*(-0.000414371552496457+0.000414385205108152)
variable C45 equal 0.5*(2.99878383885412e-09+-1.05744180079071e-08)
variable C55 equal 0.5*(36.122548865177+36.1225488819518)
variable C65 equal 0.5*(-5.81436948449052e-08+6.01109676297253e-08)

# Delete dir to make sure it is not reused

variable dir delete

# uxy Perturbation

variable dir equal 6
include displace.mod
# NOTE: This script should not need to be
# modified. See in.elastic for more info.
#
# Find which reference length to use

variable len0 equal 27.9235627345443

# Reset box and simulation parameters

clear
box tilt large
read_restart restart.equil
  triclinic box = (-13.9618 -13.9618 -13.9618) to (13.9618 13.9618 13.9618) with tilt (0 0 0)
  768 atoms
include potential.mod
# NOTE: This script can be modified for different pair styles
# See in.elastic for more info.

# Choose potential
pair_style     rebo
pair_coeff     * * CH.airebo  C
Reading potential file CH.airebo with DATE: 2011-10-25

#pair_style     lcbop
#pair_coeff     C.lcbop
#pair_style     tersoff
#pair_coeff     BNC.tersoff

# Setup neighbor style
neighbor 1.0 nsq
neigh_modify once no every 1 delay 0 check yes

# Setup minimization style
min_style	     cg
min_modify	     dmax 0.01 line quadratic

# Setup output
thermo		500
thermo_style custom step temp pe press pxx pyy pzz pxy pxz pyz lx ly lz vol
thermo_modify norm no

# Output
dump            1 all xtc 100 traj.xtc
dump            2 all xyz 2000 relaxed.xyz
#dump            4 all atom 10 dump.atom

# Negative deformation

variable delta equal -1.0e-5*27.9235627345443
variable deltaxy equal -1.0e-5*xy
variable deltaxz equal -1.0e-5*xz
variable deltayz equal -1.0e-5*yz
change_box all xy delta -0.000279235627345443 remap units box
  triclinic box = (-13.9618 -13.9618 -13.9618) to (13.9618 13.9618 13.9618) with tilt (-0.000279236 0 0)

# Relax atoms positions

minimize 0 1e-10 10000000 10000000
  1 neighbor list requests
  update every 1 steps, delay 0 steps, check yes
Step Temp PotEng Press Pxx Pyy Pzz Pxy Pxz Pyz Lx Ly Lz Volume
31436            0   -5815.0326  -0.18172674  -0.28406699  -0.33006073  0.068947501    8.4941184 -0.0047497128  0.041943527    27.923563    27.923563    27.923563     21772.71
Loop time of 0.224916 on 16 procs (16 MPI x 1 OpenMP) for 343 steps with 768 atoms

Minimization stats:
  Stopping criterion = force tolerance
  Energy initial, next-to-last, final =
  Force two-norm initial, final = 0.0214553 9.64068e-11
  Force max component initial, final = 0.00161628 1.13054e-11
  Final line search alpha, max atom move = 1 1.13054e-11
  Iterations, force evaluations = 343 686

Pair  time (%) = 0.167054 (74.2739)
Neigh time (%) = 0 (0)
Comm  time (%) = 0.0411574 (18.299)
Outpt time (%) = 0.000726953 (0.323211)
Other time (%) = 0.0159779 (7.10393)

# Obtain new stress tensor

variable tmp equal pxx
variable pxx1 equal -0.000102807608431647
variable tmp equal pyy
variable pyy1 equal -7.07842935774631e-05
variable tmp equal pzz
variable pzz1 equal -3.16232479404576e-05
variable tmp equal pxy
variable pxy1 equal 3.61225488777467
variable tmp equal pxz
variable pxz1 equal -2.9018907523592e-11
variable tmp equal pyz
variable pyz1 equal 1.41869125261453e-09

# Compute elastic constant from pressure tensor

variable C1neg equal -0.00102808548376283
variable C2neg equal -0.000707871115486721
variable C3neg equal -0.000316206156183631
variable C4neg equal 5.36980504986112e-09
variable C5neg equal -9.05925849514659e-09
variable C6neg equal 36.1225488129326

# Reset box and simulation parameters

clear
box tilt large
read_restart restart.equil
  triclinic box = (-13.9618 -13.9618 -13.9618) to (13.9618 13.9618 13.9618) with tilt (0 0 0)
  768 atoms
include potential.mod
# NOTE: This script can be modified for different pair styles
# See in.elastic for more info.

# Choose potential
pair_style     rebo
pair_coeff     * * CH.airebo  C
Reading potential file CH.airebo with DATE: 2011-10-25

#pair_style     lcbop
#pair_coeff     C.lcbop
#pair_style     tersoff
#pair_coeff     BNC.tersoff

# Setup neighbor style
neighbor 1.0 nsq
neigh_modify once no every 1 delay 0 check yes

# Setup minimization style
min_style	     cg
min_modify	     dmax 0.01 line quadratic

# Setup output
thermo		500
thermo_style custom step temp pe press pxx pyy pzz pxy pxz pyz lx ly lz vol
thermo_modify norm no

# Output
dump            1 all xtc 100 traj.xtc
dump            2 all xyz 2000 relaxed.xyz
#dump            4 all atom 10 dump.atom

# Positive deformation

variable delta equal 1.0e-5*27.9235627345443
variable deltaxy equal 1.0e-5*xy
variable deltaxz equal 1.0e-5*xz
variable deltayz equal 1.0e-5*yz
change_box all xy delta 0.000279235627345443 remap units box
  triclinic box = (-13.9618 -13.9618 -13.9618) to (13.9618 13.9618 13.9618) with tilt (0.000279236 0 0)

# Relax atoms positions

minimize 0 1e-10 10000000 10000000
  1 neighbor list requests
  update every 1 steps, delay 0 steps, check yes
Step Temp PotEng Press Pxx Pyy Pzz Pxy Pxz Pyz Lx Ly Lz Volume
31436            0   -5815.0326  -0.18172531  -0.28403474  -0.33005326  0.068912073   -8.7742608 -0.004737761   0.04194623    27.923563    27.923563    27.923563     21772.71
Loop time of 0.220862 on 16 procs (16 MPI x 1 OpenMP) for 342 steps with 768 atoms

Minimization stats:
  Stopping criterion = force tolerance
  Energy initial, next-to-last, final =
  Force two-norm initial, final = 0.0215778 9.77427e-11
  Force max component initial, final = 0.00160026 8.97563e-12
  Final line search alpha, max atom move = 1 8.97563e-12
  Iterations, force evaluations = 342 684

Pair  time (%) = 0.166358 (75.3224)
Neigh time (%) = 0 (0)
Comm  time (%) = 0.0384437 (17.4062)
Outpt time (%) = 0.0007824 (0.354249)
Other time (%) = 0.0152773 (6.91715)

# Obtain new stress tensor

variable tmp equal pe
variable e1 equal -5815.03265135806
variable tmp equal press
variable p1 equal -6.83979146760844e-05
variable tmp equal pxx
variable pxx1 equal -0.000102804758467746
variable tmp equal pyy
variable pyy1 equal -7.07746166868146e-05
variable tmp equal pzz
variable pzz1 equal -3.16143688736923e-05
variable tmp equal pxy
variable pxy1 equal -3.6122548871186
variable tmp equal pxz
variable pxz1 equal 1.61368654675109e-09
variable tmp equal pyz
variable pyz1 equal 2.23402288323022e-09

# Compute elastic constant from pressure tensor

variable C1pos equal 0.00102805698412382
variable C2pos equal 0.000707774346580236
variable C3pos equal 0.000316117365515978
variable C4pos equal -1.3523121356018e-08
variable C5pos equal -7.36779604760023e-09
variable C6pos equal 36.1225489360001

# Combine positive and negative

variable C16 equal 0.5*(-0.00102808548376283+0.00102805698412382)
variable C26 equal 0.5*(-0.000707871115486721+0.000707774346580236)
variable C36 equal 0.5*(-0.000316206156183631+0.000316117365515978)
variable C46 equal 0.5*(5.36980504986112e-09+-1.3523121356018e-08)
variable C56 equal 0.5*(-9.05925849514659e-09+-7.36779604760023e-09)
variable C66 equal 0.5*(36.1225488129326+36.1225489360001)

# Delete dir to make sure it is not reused

variable dir delete

# Output final values

variable C11all equal 28.6596997507366
variable C22all equal 28.6596997551054
variable C33all equal 28.6596997443298

variable C12all equal 0.5*(6.94581619856964+6.94581621167703)
variable C13all equal 0.5*(6.94581621069549+6.94581619372999)
variable C23all equal 0.5*(6.9458162027777+6.94581621353811)

variable C44all equal 36.1225488891587
variable C55all equal 36.1225488735644
variable C66all equal 36.1225488744663

variable C14all equal 0.5*(2.55485664375148e-08+2.7332437879038e-09)
variable C15all equal 0.5*(1.56630206992348e-09+1.4417662710477e-09)
variable C16all equal 0.5*(-1.42498195049301e-08+1.731117961295e-10)

variable C24all equal 0.5*(-3.98683185098316e-10+2.395809838916e-09)
variable C25all equal 0.5*(-3.43651837300912e-09+-3.70903480316065e-09)
variable C26all equal 0.5*(-4.83844532425128e-08+-9.78417799494998e-10)

variable C34all equal 0.5*(1.37784256519957e-08+-2.2458107517534e-09)
variable C35all equal 0.5*(6.82630584748919e-09+-2.084888116527e-10)
variable C36all equal 0.5*(-4.43953338265083e-08+-2.7733346132795e-09)

variable C45all equal 0.5*(-3.78781708452649e-09+1.91825435994914e-09)
variable C46all equal 0.5*(-4.07665815307844e-09+-3.40710731802895e-09)
variable C56all equal 0.5*(-8.21352727137341e-09+9.83636392410046e-10)

# Average moduli for cubic crystals

variable C11cubic equal (28.6596997507366+28.6596997551054+28.6596997443298)/3.0
variable C12cubic equal (6.94581620512333+6.94581620221274+6.9458162081579)/3.0
variable C44cubic equal (36.1225488891587+36.1225488735644+36.1225488744663)/3.0

variable bulkmodulus equal (28.6596997500573+2*6.94581620516466)/3.0
variable shearmodulus1 equal 36.1225488790631
variable shearmodulus2 equal (28.6596997500573-6.94581620516466)/2.0
variable poissonratio equal 1.0/(1.0+28.6596997500573/6.94581620516466)

# For Stillinger-Weber silicon, the analytical results
# are known to be (E. R. Cowley, 1988):
#               C11 = 151.4 GPa
#               C12 = 76.4 GPa
#               C44 = 56.4 GPa

print "========================================="
=========================================
print "Components of the Elastic Constant Tensor"
Components of the Elastic Constant Tensor
print "========================================="
=========================================

Elastic Constant C11all = 28.6596997507366 GPa
Elastic Constant C22all = 28.6596997551054 GPa
Elastic Constant C33all = 28.6596997443298 GPa

Elastic Constant C12all = 6.94581620512333 GPa
Elastic Constant C13all = 6.94581620221274 GPa
Elastic Constant C23all = 6.9458162081579 GPa

Elastic Constant C44all = 36.1225488891587 GPa
Elastic Constant C55all = 36.1225488735644 GPa
Elastic Constant C66all = 36.1225488744663 GPa

Elastic Constant C14all = 1.41409051127093e-08 GPa
Elastic Constant C15all = 1.50403417048559e-09 GPa
Elastic Constant C16all = -7.0383538544003e-09 GPa

Elastic Constant C24all = 9.98563326908842e-10 GPa
Elastic Constant C25all = -3.57277658808489e-09 GPa
Elastic Constant C26all = -2.46814355210039e-08 GPa

Elastic Constant C34all = 5.76630745012115e-09 GPa
Elastic Constant C35all = 3.30890851791825e-09 GPa
Elastic Constant C36all = -2.35843342198939e-08 GPa

Elastic Constant C45all = -9.34781362288675e-10 GPa
Elastic Constant C46all = -3.74188273555369e-09 GPa
Elastic Constant C56all = -3.61494543948168e-09 GPa

print "========================================="
=========================================
print "Average properties for a cubic crystal"
Average properties for a cubic crystal
print "========================================="
=========================================

Bulk Modulus = 14.1837773867955 GPa
Shear Modulus 1 = 36.1225488790631 GPa
Shear Modulus 2 = 10.8569417724463 GPa
Poisson Ratio = 0.195076971048526
Deformation size: 1.0e-5

print "Lattice_type	lattice_constant	bulk_modulus	poisson	     c11	     c12         c44	" file elastic_constants.out
Lattice_type	lattice_constant	bulk_modulus	poisson	     c11	     c12         c44
sc    10.0    14.1837773867955     0.195076971048526     28.6596997507366     6.94581620512333     36.1225488891587
