read_data       p-8-3_D3-1.xyz
  orthogonal box = (-14.7153 -14.7153 -14.7153) to (14.7153 14.7153 14.7153)
  reading atoms ...
  768 atoms
change_box 	all triclinic
  triclinic box = (-14.7153 -14.7153 -14.7153) to (14.7153 14.7153 14.7153) with tilt (0 0 0)

include potential.mod
# NOTE: This script can be modified for different pair styles
# See in.elastic for more info.

# Choose potential
pair_style     rebo
pair_coeff     * * CH.airebo  C
Reading potential file CH.airebo with DATE: 2011-10-25

#pair_style     lcbop
#pair_coeff     C.lcbop
#pair_style     tersoff
#pair_coeff     BNC.tersoff

# Setup neighbor style
neighbor 1.0 nsq
neigh_modify once no every 1 delay 0 check yes

# Setup minimization style
min_style	     cg
min_modify	     dmax 0.01 line quadratic

# Setup output
thermo		500
thermo_style custom step temp pe press pxx pyy pzz pxy pxz pyz lx ly lz vol
thermo_modify norm no

# Output
dump            1 all xtc 100 traj.xtc
dump            2 all xyz 2000 relaxed.xyz
#dump            4 all atom 10 dump.atom

# Compute initial state
fix 3 all box/relax  aniso 0.0
minimize 0 1e-10 10000000 10000000
  1 neighbor list requests
  update every 1 steps, delay 0 steps, check yes
Step Temp PotEng Press Pxx Pyy Pzz Pxy Pxz Pyz Lx Ly Lz Volume
0            0   -5399.0538    53757.996    53758.001    53757.992    53757.996 -0.0027118458 0.0026154726 0.0025238836     29.43052     29.43052     29.43052    25491.407
Averages over the last 31 of 62 rows, steps 15500 to 30022:
Temp PotEng Press Pxx Pyy Pzz Pxy Pxz Pyz Lx Ly Lz Volume
0 -5810.74 -17.8496 -17.6673 -23.2592 -12.6222 -0.00581224 -0.00396542 0.00647689 28.2046 28.2046 28.2044 22440.4
Loop time of 13.4 on 16 procs (16 MPI x 1 OpenMP) for 30022 steps with 768 atoms

Minimization stats:
  Stopping criterion = force tolerance
  Energy initial, next-to-last, final =
  Force two-norm initial, final = 1544.18 9.61213e-11
  Force max component initial, final = 855.316 2.31205e-11
  Final line search alpha, max atom move = 1 2.31205e-11
  Iterations, force evaluations = 30022 38898

Pair  time (%) = 10.1379 (75.6563)
Neigh time (%) = 0.01137 (0.0848509)
Comm  time (%) = 1.64202 (12.2539)
Outpt time (%) = 0.0428536 (0.319804)
Other time (%) = 1.56581 (11.6852)

#dump rel all xyz 10 relaxed-*.xyz
#dump 3 all xyz 10 relaxed.xyz
#dump 3 all atom 10 dump.atom

variable tmp equal pxx
variable pxx0 equal 1.61424208890387e-09
variable tmp equal pyy
variable pyy0 equal -1.21173546281263e-09
variable tmp equal pzz
variable pzz0 equal -9.09781965606896e-10
variable tmp equal pyz
variable pyz0 equal -5.93683384930867e-09
variable tmp equal pxz
variable pxz0 equal 5.61803435342224e-09
variable tmp equal pxy
variable pxy0 equal -2.73411702350814e-09

variable tmp equal lx
variable lx0 equal 27.9235627345253
variable tmp equal ly
variable ly0 equal 27.9235627345261
variable tmp equal lz
variable lz0 equal 27.9235627345264

# These formulas define the derivatives w.r.t. strain components
# Constants uses $, variables use v_
variable d1 equal -(v_pxx1-1.61424208890387e-09)/(v_delta/v_len0)*0.0001
variable d2 equal -(v_pyy1--1.21173546281263e-09)/(v_delta/v_len0)*0.0001
variable d3 equal -(v_pzz1--9.09781965606896e-10)/(v_delta/v_len0)*0.0001
variable d4 equal -(v_pyz1--5.93683384930867e-09)/(v_delta/v_len0)*0.0001
variable d5 equal -(v_pxz1-5.61803435342224e-09)/(v_delta/v_len0)*0.0001
variable d6 equal -(v_pxy1--2.73411702350814e-09)/(v_delta/v_len0)*0.0001

displace_atoms all random 1e-05 1e-05 1e-05 87287 units box

# Write restart
unfix 3
write_restart restart.equil

# uxx Perturbation

variable dir equal 1
include displace.mod
# NOTE: This script should not need to be
# modified. See in.elastic for more info.
#
# Find which reference length to use

variable len0 equal 27.9235627345253

# Reset box and simulation parameters

clear
box tilt large
read_restart restart.equil
  triclinic box = (-13.9618 -13.9618 -13.9618) to (13.9618 13.9618 13.9618) with tilt (0 0 0)
  768 atoms
include potential.mod
# NOTE: This script can be modified for different pair styles
# See in.elastic for more info.

# Choose potential
pair_style     rebo
pair_coeff     * * CH.airebo  C
Reading potential file CH.airebo with DATE: 2011-10-25

#pair_style     lcbop
#pair_coeff     C.lcbop
#pair_style     tersoff
#pair_coeff     BNC.tersoff

# Setup neighbor style
neighbor 1.0 nsq
neigh_modify once no every 1 delay 0 check yes

# Setup minimization style
min_style	     cg
min_modify	     dmax 0.01 line quadratic

# Setup output
thermo		500
thermo_style custom step temp pe press pxx pyy pzz pxy pxz pyz lx ly lz vol
thermo_modify norm no

# Output
dump            1 all xtc 100 traj.xtc
dump            2 all xyz 2000 relaxed.xyz
#dump            4 all atom 10 dump.atom

# Negative deformation

variable delta equal -1.0e-5*27.9235627345253
variable deltaxy equal -1.0e-5*xy
variable deltaxz equal -1.0e-5*xz
variable deltayz equal -1.0e-5*yz
change_box all x delta 0 -0.000279235627345253 xy delta -0 xz delta -0 remap units box
  triclinic box = (-13.9618 -13.9618 -13.9618) to (13.9615 13.9618 13.9618) with tilt (0 0 0)
  triclinic box = (-13.9618 -13.9618 -13.9618) to (13.9615 13.9618 13.9618) with tilt (0 0 0)
  triclinic box = (-13.9618 -13.9618 -13.9618) to (13.9615 13.9618 13.9618) with tilt (0 0 0)

# Relax atoms positions

minimize 0 1e-10 10000000 10000000
  1 neighbor list requests
  update every 1 steps, delay 0 steps, check yes
Step Temp PotEng Press Pxx Pyy Pzz Pxy Pxz Pyz Lx Ly Lz Volume
30022            0   -5815.0326    8.5437375    18.574136    3.8599072     3.197169  -0.24514174   0.20685676  -0.13737072    27.923283    27.923563    27.923563    21772.492
Loop time of 0.231305 on 16 procs (16 MPI x 1 OpenMP) for 356 steps with 768 atoms

Minimization stats:
  Stopping criterion = force tolerance
  Energy initial, next-to-last, final =
  Force two-norm initial, final = 0.0227364 9.81922e-11
  Force max component initial, final = 0.00194756 1.04012e-11
  Final line search alpha, max atom move = 1 1.04012e-11
  Iterations, force evaluations = 356 712

Pair  time (%) = 0.173981 (75.2172)
Neigh time (%) = 0 (0)
Comm  time (%) = 0.0414984 (17.941)
Outpt time (%) = 0.000677541 (0.292921)
Other time (%) = 0.0151478 (6.54885)

# Obtain new stress tensor

variable tmp equal pxx
variable pxx1 equal 2.86590250622938
variable tmp equal pyy
variable pyy1 equal 0.694544730124541
variable tmp equal pzz
variable pzz1 equal 0.69454635593738
variable tmp equal pxy
variable pxy1 equal -7.13061817742548e-09
variable tmp equal pxz
variable pxz1 equal 1.27775971923619e-10
variable tmp equal pyz
variable pyz1 equal -1.50641008249838e-08

# Compute elastic constant from pressure tensor

variable C1neg equal 28.6590250461514
variable C2neg equal 6.94544731336276
variable C3neg equal 6.94546356847162
variable C4neg equal -9.12726697567513e-08
variable C5neg equal -5.49025838149862e-08
variable C6neg equal -4.39650115391734e-08

# Reset box and simulation parameters

clear
box tilt large
read_restart restart.equil
  triclinic box = (-13.9618 -13.9618 -13.9618) to (13.9618 13.9618 13.9618) with tilt (0 0 0)
  768 atoms
include potential.mod
# NOTE: This script can be modified for different pair styles
# See in.elastic for more info.

# Choose potential
pair_style     rebo
pair_coeff     * * CH.airebo  C
Reading potential file CH.airebo with DATE: 2011-10-25

#pair_style     lcbop
#pair_coeff     C.lcbop
#pair_style     tersoff
#pair_coeff     BNC.tersoff

# Setup neighbor style
neighbor 1.0 nsq
neigh_modify once no every 1 delay 0 check yes

# Setup minimization style
min_style	     cg
min_modify	     dmax 0.01 line quadratic

# Setup output
thermo		500
thermo_style custom step temp pe press pxx pyy pzz pxy pxz pyz lx ly lz vol
thermo_modify norm no

# Output
dump            1 all xtc 100 traj.xtc
dump            2 all xyz 2000 relaxed.xyz
#dump            4 all atom 10 dump.atom

# Positive deformation

variable delta equal 1.0e-5*27.9235627345253
variable deltaxy equal 1.0e-5*xy
variable deltaxz equal 1.0e-5*xz
variable deltayz equal 1.0e-5*yz
change_box all x delta 0 0.000279235627345253 xy delta 0 xz delta 0 remap units box
  triclinic box = (-13.9618 -13.9618 -13.9618) to (13.9621 13.9618 13.9618) with tilt (0 0 0)
  triclinic box = (-13.9618 -13.9618 -13.9618) to (13.9621 13.9618 13.9618) with tilt (0 0 0)
  triclinic box = (-13.9618 -13.9618 -13.9618) to (13.9621 13.9618 13.9618) with tilt (0 0 0)

# Relax atoms positions

minimize 0 1e-10 10000000 10000000
  1 neighbor list requests
  update every 1 steps, delay 0 steps, check yes
Step Temp PotEng Press Pxx Pyy Pzz Pxy Pxz Pyz Lx Ly Lz Volume
30022            0   -5815.0326   -8.3270285   -18.099986   -3.1092009   -3.7718985    -0.245132   0.20676322  -0.13734471    27.923842    27.923563    27.923563    21772.928
Loop time of 0.232231 on 16 procs (16 MPI x 1 OpenMP) for 357 steps with 768 atoms

Minimization stats:
  Stopping criterion = force tolerance
  Energy initial, next-to-last, final =
  Force two-norm initial, final = 0.0226887 8.9122e-11
  Force max component initial, final = 0.0019046 1.05471e-11
  Final line search alpha, max atom move = 1 1.05471e-11
  Iterations, force evaluations = 357 714

Pair  time (%) = 0.174349 (75.0755)
Neigh time (%) = 0 (0)
Comm  time (%) = 0.0421604 (18.1545)
Outpt time (%) = 0.000645295 (0.277867)
Other time (%) = 0.0150768 (6.49214)

# Obtain new stress tensor

variable tmp equal pe
variable e1 equal -5815.03265140877
variable tmp equal press
variable p1 equal -1.4184242763222
variable tmp equal pxx
variable pxx1 equal -2.86603743991785
variable tmp equal pyy
variable pyy1 equal -0.694618507844392
variable tmp equal pzz
variable pzz1 equal -0.694616881204359
variable tmp equal pxy
variable pxy1 equal -9.13668159755052e-09
variable tmp equal pxz
variable pxz1 equal 2.44625637010157e-09
variable tmp equal pyz
variable pyz1 equal -1.66499463857019e-08

# Compute elastic constant from pressure tensor

variable C1pos equal 28.6603744153209
variable C2pos equal 6.94618506632657
variable C3pos equal 6.94616880294577
variable C4pos equal 1.07131125363932e-07
variable C5pos equal 3.17177798332067e-08
variable C6pos equal 6.40256457404238e-08

# Combine positive and negative

variable C11 equal 0.5*(28.6590250461514+28.6603744153209)
variable C21 equal 0.5*(6.94544731336276+6.94618506632657)
variable C31 equal 0.5*(6.94546356847162+6.94616880294577)
variable C41 equal 0.5*(-9.12726697567513e-08+1.07131125363932e-07)
variable C51 equal 0.5*(-5.49025838149862e-08+3.17177798332067e-08)
variable C61 equal 0.5*(-4.39650115391734e-08+6.40256457404238e-08)

# Delete dir to make sure it is not reused

variable dir delete

# uyy Perturbation

variable dir equal 2
include displace.mod
# NOTE: This script should not need to be
# modified. See in.elastic for more info.
#
# Find which reference length to use

variable len0 equal 27.9235627345261

# Reset box and simulation parameters

clear
box tilt large
read_restart restart.equil
  triclinic box = (-13.9618 -13.9618 -13.9618) to (13.9618 13.9618 13.9618) with tilt (0 0 0)
  768 atoms
include potential.mod
# NOTE: This script can be modified for different pair styles
# See in.elastic for more info.

# Choose potential
pair_style     rebo
pair_coeff     * * CH.airebo  C
Reading potential file CH.airebo with DATE: 2011-10-25

#pair_style     lcbop
#pair_coeff     C.lcbop
#pair_style     tersoff
#pair_coeff     BNC.tersoff

# Setup neighbor style
neighbor 1.0 nsq
neigh_modify once no every 1 delay 0 check yes

# Setup minimization style
min_style	     cg
min_modify	     dmax 0.01 line quadratic

# Setup output
thermo		500
thermo_style custom step temp pe press pxx pyy pzz pxy pxz pyz lx ly lz vol
thermo_modify norm no

# Output
dump            1 all xtc 100 traj.xtc
dump            2 all xyz 2000 relaxed.xyz
#dump            4 all atom 10 dump.atom

# Negative deformation

variable delta equal -1.0e-5*27.9235627345261
variable deltaxy equal -1.0e-5*xy
variable deltaxz equal -1.0e-5*xz
variable deltayz equal -1.0e-5*yz
change_box all y delta 0 -0.000279235627345261 yz delta -0 remap units box
  triclinic box = (-13.9618 -13.9618 -13.9618) to (13.9618 13.9615 13.9618) with tilt (0 0 0)
  triclinic box = (-13.9618 -13.9618 -13.9618) to (13.9618 13.9615 13.9618) with tilt (0 0 0)

# Relax atoms positions

minimize 0 1e-10 10000000 10000000
  1 neighbor list requests
  update every 1 steps, delay 0 steps, check yes
Step Temp PotEng Press Pxx Pyy Pzz Pxy Pxz Pyz Lx Ly Lz Volume
30022            0   -5815.0326    8.5437409     3.721146    18.712876    3.1972008  -0.24516777   0.20679226  -0.13736208    27.923563    27.923283    27.923563    21772.492
Loop time of 0.230021 on 16 procs (16 MPI x 1 OpenMP) for 356 steps with 768 atoms

Minimization stats:
  Stopping criterion = force tolerance
  Energy initial, next-to-last, final =
  Force two-norm initial, final = 0.0228465 9.81785e-11
  Force max component initial, final = 0.001921 1.12754e-11
  Final line search alpha, max atom move = 1 1.12754e-11
  Iterations, force evaluations = 356 712

Pair  time (%) = 0.1728 (75.1233)
Neigh time (%) = 0 (0)
Comm  time (%) = 0.0414557 (18.0225)
Outpt time (%) = 0.000669509 (0.291064)
Other time (%) = 0.0150965 (6.56309)

# Obtain new stress tensor

variable tmp equal pxx
variable pxx1 equal 0.694546367615124
variable tmp equal pyy
variable pyy1 equal 2.86590250075952
variable tmp equal pzz
variable pzz1 equal 0.694544725359575
variable tmp equal pxy
variable pxy1 equal -7.30904702824465e-09
variable tmp equal pxz
variable pxz1 equal 1.6402382564681e-09
variable tmp equal pyz
variable pyz1 equal -1.46414107204196e-08

# Compute elastic constant from pressure tensor

variable C1neg equal 6.94546366000882
variable C2neg equal 28.6590250197126
variable C3neg equal 6.94544726269357
variable C4neg equal -8.70457687111093e-08
variable C5neg equal -3.97779609695414e-08
variable C6neg equal -4.57493000473651e-08

# Reset box and simulation parameters

clear
box tilt large
read_restart restart.equil
  triclinic box = (-13.9618 -13.9618 -13.9618) to (13.9618 13.9618 13.9618) with tilt (0 0 0)
  768 atoms
include potential.mod
# NOTE: This script can be modified for different pair styles
# See in.elastic for more info.

# Choose potential
pair_style     rebo
pair_coeff     * * CH.airebo  C
Reading potential file CH.airebo with DATE: 2011-10-25

#pair_style     lcbop
#pair_coeff     C.lcbop
#pair_style     tersoff
#pair_coeff     BNC.tersoff

# Setup neighbor style
neighbor 1.0 nsq
neigh_modify once no every 1 delay 0 check yes

# Setup minimization style
min_style	     cg
min_modify	     dmax 0.01 line quadratic

# Setup output
thermo		500
thermo_style custom step temp pe press pxx pyy pzz pxy pxz pyz lx ly lz vol
thermo_modify norm no

# Output
dump            1 all xtc 100 traj.xtc
dump            2 all xyz 2000 relaxed.xyz
#dump            4 all atom 10 dump.atom

# Positive deformation

variable delta equal 1.0e-5*27.9235627345261
variable deltaxy equal 1.0e-5*xy
variable deltaxz equal 1.0e-5*xz
variable deltayz equal 1.0e-5*yz
change_box all y delta 0 0.000279235627345261 yz delta 0 remap units box
  triclinic box = (-13.9618 -13.9618 -13.9618) to (13.9618 13.9621 13.9618) with tilt (0 0 0)
  triclinic box = (-13.9618 -13.9618 -13.9618) to (13.9618 13.9621 13.9618) with tilt (0 0 0)

# Relax atoms positions

minimize 0 1e-10 10000000 10000000
  1 neighbor list requests
  update every 1 steps, delay 0 steps, check yes
Step Temp PotEng Press Pxx Pyy Pzz Pxy Pxz Pyz Lx Ly Lz Volume
30022            0   -5815.0326    -8.327032   -3.2479592   -17.961256   -3.7718808  -0.24510597   0.20682771  -0.13735334    27.923563    27.923842    27.923563    21772.928
Loop time of 0.231052 on 16 procs (16 MPI x 1 OpenMP) for 356 steps with 768 atoms

Minimization stats:
  Stopping criterion = force tolerance
  Energy initial, next-to-last, final =
  Force two-norm initial, final = 0.0225779 9.6738e-11
  Force max component initial, final = 0.00186977 8.40739e-12
  Final line search alpha, max atom move = 1 8.40739e-12
  Iterations, force evaluations = 356 712

Pair  time (%) = 0.173243 (74.9798)
Neigh time (%) = 0 (0)
Comm  time (%) = 0.0418161 (18.0981)
Outpt time (%) = 0.000656933 (0.284322)
Other time (%) = 0.0153368 (6.63782)

# Obtain new stress tensor

variable tmp equal pe
variable e1 equal -5815.03265140877
variable tmp equal press
variable p1 equal -1.41842427688159
variable tmp equal pxx
variable pxx1 equal -0.69461686697808
variable tmp equal pyy
variable pyy1 equal -2.8660374479446
variable tmp equal pzz
variable pzz1 equal -0.694618515722097
variable tmp equal pxy
variable pxy1 equal -7.8360723970637e-09
variable tmp equal pxz
variable pxz1 equal 1.08120492480671e-09
variable tmp equal pyz
variable pyz1 equal -1.65785190852003e-08

# Compute elastic constant from pressure tensor

variable C1pos equal 6.94616868592322
variable C2pos equal 28.6603744673286
variable C3pos equal 6.94618514812315
variable C4pos equal 1.06416852358916e-07
variable C5pos equal 4.53682942861553e-08
variable C6pos equal 5.10195537355556e-08

# Combine positive and negative

variable C12 equal 0.5*(6.94546366000882+6.94616868592322)
variable C22 equal 0.5*(28.6590250197126+28.6603744673286)
variable C32 equal 0.5*(6.94544726269357+6.94618514812315)
variable C42 equal 0.5*(-8.70457687111093e-08+1.06416852358916e-07)
variable C52 equal 0.5*(-3.97779609695414e-08+4.53682942861553e-08)
variable C62 equal 0.5*(-4.57493000473651e-08+5.10195537355556e-08)

# Delete dir to make sure it is not reused

variable dir delete

# uzz Perturbation

variable dir equal 3
include displace.mod
# NOTE: This script should not need to be
# modified. See in.elastic for more info.
#
# Find which reference length to use

variable len0 equal 27.9235627345264

# Reset box and simulation parameters

clear
box tilt large
read_restart restart.equil
  triclinic box = (-13.9618 -13.9618 -13.9618) to (13.9618 13.9618 13.9618) with tilt (0 0 0)
  768 atoms
include potential.mod
# NOTE: This script can be modified for different pair styles
# See in.elastic for more info.

# Choose potential
pair_style     rebo
pair_coeff     * * CH.airebo  C
Reading potential file CH.airebo with DATE: 2011-10-25

#pair_style     lcbop
#pair_coeff     C.lcbop
#pair_style     tersoff
#pair_coeff     BNC.tersoff

# Setup neighbor style
neighbor 1.0 nsq
neigh_modify once no every 1 delay 0 check yes

# Setup minimization style
min_style	     cg
min_modify	     dmax 0.01 line quadratic

# Setup output
thermo		500
thermo_style custom step temp pe press pxx pyy pzz pxy pxz pyz lx ly lz vol
thermo_modify norm no

# Output
dump            1 all xtc 100 traj.xtc
dump            2 all xyz 2000 relaxed.xyz
#dump            4 all atom 10 dump.atom

# Negative deformation

variable delta equal -1.0e-5*27.9235627345264
variable deltaxy equal -1.0e-5*xy
variable deltaxz equal -1.0e-5*xz
variable deltayz equal -1.0e-5*yz
change_box all z delta 0 -0.000279235627345264 remap units box
  triclinic box = (-13.9618 -13.9618 -13.9618) to (13.9618 13.9618 13.9615) with tilt (0 0 0)

# Relax atoms positions

minimize 0 1e-10 10000000 10000000
  1 neighbor list requests
  update every 1 steps, delay 0 steps, check yes
Step Temp PotEng Press Pxx Pyy Pzz Pxy Pxz Pyz Lx Ly Lz Volume
30022            0   -5815.0326    8.5437213    3.7211571    3.8598759    18.050131  -0.24513699   0.20680976  -0.13736319    27.923563    27.923563    27.923283    21772.492
Loop time of 0.229757 on 16 procs (16 MPI x 1 OpenMP) for 356 steps with 768 atoms

Minimization stats:
  Stopping criterion = force tolerance
  Energy initial, next-to-last, final =
  Force two-norm initial, final = 0.0226001 9.57192e-11
  Force max component initial, final = 0.00191487 8.03541e-12
  Final line search alpha, max atom move = 1 8.03541e-12
  Iterations, force evaluations = 356 712

Pair  time (%) = 0.173033 (75.3112)
Neigh time (%) = 0 (0)
Comm  time (%) = 0.0412185 (17.94)
Outpt time (%) = 0.000625506 (0.272246)
Other time (%) = 0.0148802 (6.47651)

# Obtain new stress tensor

variable tmp equal pxx
variable pxx1 equal 0.694544736202788
variable tmp equal pyy
variable pyy1 equal 0.694546360435879
variable tmp equal pzz
variable pzz1 equal 2.86590249785544
variable tmp equal pxy
variable pxy1 equal -8.79660770393854e-09
variable tmp equal pxz
variable pxz1 equal 2.39669815367729e-10
variable tmp equal pyz
variable pyz1 equal -1.62593372007161e-08

# Compute elastic constant from pressure tensor

variable C1neg equal 6.94544734588546
variable C2neg equal 6.94546361647614
variable C3neg equal 28.6590249876522
variable C4neg equal -1.03225033514074e-07
variable C5neg equal -5.37836453805451e-08
variable C6neg equal -6.0624906804304e-08

# Reset box and simulation parameters

clear
box tilt large
read_restart restart.equil
  triclinic box = (-13.9618 -13.9618 -13.9618) to (13.9618 13.9618 13.9618) with tilt (0 0 0)
  768 atoms
include potential.mod
# NOTE: This script can be modified for different pair styles
# See in.elastic for more info.

# Choose potential
pair_style     rebo
pair_coeff     * * CH.airebo  C
Reading potential file CH.airebo with DATE: 2011-10-25

#pair_style     lcbop
#pair_coeff     C.lcbop
#pair_style     tersoff
#pair_coeff     BNC.tersoff

# Setup neighbor style
neighbor 1.0 nsq
neigh_modify once no every 1 delay 0 check yes

# Setup minimization style
min_style	     cg
min_modify	     dmax 0.01 line quadratic

# Setup output
thermo		500
thermo_style custom step temp pe press pxx pyy pzz pxy pxz pyz lx ly lz vol
thermo_modify norm no

# Output
dump            1 all xtc 100 traj.xtc
dump            2 all xyz 2000 relaxed.xyz
#dump            4 all atom 10 dump.atom

# Positive deformation

variable delta equal 1.0e-5*27.9235627345264
variable deltaxy equal 1.0e-5*xy
variable deltaxz equal 1.0e-5*xz
variable deltayz equal 1.0e-5*yz
change_box all z delta 0 0.000279235627345264 remap units box
  triclinic box = (-13.9618 -13.9618 -13.9618) to (13.9618 13.9618 13.9621) with tilt (0 0 0)

# Relax atoms positions

minimize 0 1e-10 10000000 10000000
  1 neighbor list requests
  update every 1 steps, delay 0 steps, check yes
Step Temp PotEng Press Pxx Pyy Pzz Pxy Pxz Pyz Lx Ly Lz Volume
30022            0   -5815.0326   -8.3270124   -3.2479209    -3.109219   -18.623897  -0.24513674   0.20681022  -0.13735223    27.923563    27.923563    27.923842    21772.928
Loop time of 0.231327 on 16 procs (16 MPI x 1 OpenMP) for 356 steps with 768 atoms

Minimization stats:
  Stopping criterion = force tolerance
  Energy initial, next-to-last, final =
  Force two-norm initial, final = 0.0228244 9.71505e-11
  Force max component initial, final = 0.00177249 9.00435e-12
  Final line search alpha, max atom move = 1 9.00435e-12
  Iterations, force evaluations = 356 712

Pair  time (%) = 0.173358 (74.9407)
Neigh time (%) = 0 (0)
Comm  time (%) = 0.0423508 (18.3078)
Outpt time (%) = 0.00063701 (0.275372)
Other time (%) = 0.0149811 (6.47615)

# Obtain new stress tensor

variable tmp equal pe
variable e1 equal -5815.03265140877
variable tmp equal press
variable p1 equal -1.41842427574293
variable tmp equal pxx
variable pxx1 equal -0.694618501014167
variable tmp equal pyy
variable pyy1 equal -0.694616874573344
variable tmp equal pzz
variable pzz1 equal -2.86603745164127
variable tmp equal pxy
variable pxy1 equal -9.30334257550235e-09
variable tmp equal pxz
variable pxz1 equal 1.66138119981784e-10
variable tmp equal pyz
variable pyz1 equal -1.59992904902599e-08

# Compute elastic constant from pressure tensor

variable C1pos equal 6.94618502628409
variable C2pos equal 6.94616873361608
variable C3pos equal 28.6603745073149
variable C4pos equal 1.00624566409512e-07
variable C5pos equal 5.45189623344046e-08
variable C6pos equal 6.56922555199421e-08

# Combine positive and negative

variable C13 equal 0.5*(6.94544734588546+6.94618502628409)
variable C23 equal 0.5*(6.94546361647614+6.94616873361608)
variable C33 equal 0.5*(28.6590249876522+28.6603745073149)
variable C43 equal 0.5*(-1.03225033514074e-07+1.00624566409512e-07)
variable C53 equal 0.5*(-5.37836453805451e-08+5.45189623344046e-08)
variable C63 equal 0.5*(-6.0624906804304e-08+6.56922555199421e-08)

# Delete dir to make sure it is not reused

variable dir delete

# uyz Perturbation

variable dir equal 4
include displace.mod
# NOTE: This script should not need to be
# modified. See in.elastic for more info.
#
# Find which reference length to use

variable len0 equal 27.9235627345264

# Reset box and simulation parameters

clear
box tilt large
read_restart restart.equil
  triclinic box = (-13.9618 -13.9618 -13.9618) to (13.9618 13.9618 13.9618) with tilt (0 0 0)
  768 atoms
include potential.mod
# NOTE: This script can be modified for different pair styles
# See in.elastic for more info.

# Choose potential
pair_style     rebo
pair_coeff     * * CH.airebo  C
Reading potential file CH.airebo with DATE: 2011-10-25

#pair_style     lcbop
#pair_coeff     C.lcbop
#pair_style     tersoff
#pair_coeff     BNC.tersoff

# Setup neighbor style
neighbor 1.0 nsq
neigh_modify once no every 1 delay 0 check yes

# Setup minimization style
min_style	     cg
min_modify	     dmax 0.01 line quadratic

# Setup output
thermo		500
thermo_style custom step temp pe press pxx pyy pzz pxy pxz pyz lx ly lz vol
thermo_modify norm no

# Output
dump            1 all xtc 100 traj.xtc
dump            2 all xyz 2000 relaxed.xyz
#dump            4 all atom 10 dump.atom

# Negative deformation

variable delta equal -1.0e-5*27.9235627345264
variable deltaxy equal -1.0e-5*xy
variable deltaxz equal -1.0e-5*xz
variable deltayz equal -1.0e-5*yz
change_box all yz delta -0.000279235627345264 remap units box
  triclinic box = (-13.9618 -13.9618 -13.9618) to (13.9618 13.9618 13.9618) with tilt (0 0 -0.000279236)

# Relax atoms positions

minimize 0 1e-10 10000000 10000000
  1 neighbor list requests
  update every 1 steps, delay 0 steps, check yes
Step Temp PotEng Press Pxx Pyy Pzz Pxy Pxz Pyz Lx Ly Lz Volume
30022            0   -5815.0326   0.10810932   0.23648637   0.37522876  -0.28738716  -0.24515397    0.2068109    8.4968328    27.923563    27.923563    27.923563     21772.71
Loop time of 0.231213 on 16 procs (16 MPI x 1 OpenMP) for 352 steps with 768 atoms

Minimization stats:
  Stopping criterion = force tolerance
  Energy initial, next-to-last, final =
  Force two-norm initial, final = 0.0223101 9.68171e-11
  Force max component initial, final = 0.00166954 7.64139e-12
  Final line search alpha, max atom move = 1 7.64139e-12
  Iterations, force evaluations = 352 704

Pair  time (%) = 0.171251 (74.0664)
Neigh time (%) = 0 (0)
Comm  time (%) = 0.040688 (17.5976)
Outpt time (%) = 0.000637263 (0.275617)
Other time (%) = 0.0186367 (8.06039)

# Obtain new stress tensor

variable tmp equal pxx
variable pxx1 equal -3.12390190106049e-05
variable tmp equal pyy
variable pyy1 equal -0.000102464450863739
variable tmp equal pzz
variable pzz1 equal -7.04787278146778e-05
variable tmp equal pxy
variable pxy1 equal -3.40122510705337e-10
variable tmp equal pxz
variable pxz1 equal 3.15874729869118e-10
variable tmp equal pyz
variable pyz1 equal 3.61225489897312

# Compute elastic constant from pressure tensor

variable C1neg equal -0.000312406332526938
variable C2neg equal -0.00102463239128276
variable C3neg equal -0.000704778180327122
variable C4neg equal 36.1225490490995
variable C5neg equal -5.30215962355312e-08
variable C6neg equal 2.3939945128028e-08

# Reset box and simulation parameters

clear
box tilt large
read_restart restart.equil
  triclinic box = (-13.9618 -13.9618 -13.9618) to (13.9618 13.9618 13.9618) with tilt (0 0 0)
  768 atoms
include potential.mod
# NOTE: This script can be modified for different pair styles
# See in.elastic for more info.

# Choose potential
pair_style     rebo
pair_coeff     * * CH.airebo  C
Reading potential file CH.airebo with DATE: 2011-10-25

#pair_style     lcbop
#pair_coeff     C.lcbop
#pair_style     tersoff
#pair_coeff     BNC.tersoff

# Setup neighbor style
neighbor 1.0 nsq
neigh_modify once no every 1 delay 0 check yes

# Setup minimization style
min_style	     cg
min_modify	     dmax 0.01 line quadratic

# Setup output
thermo		500
thermo_style custom step temp pe press pxx pyy pzz pxy pxz pyz lx ly lz vol
thermo_modify norm no

# Output
dump            1 all xtc 100 traj.xtc
dump            2 all xyz 2000 relaxed.xyz
#dump            4 all atom 10 dump.atom

# Positive deformation

variable delta equal 1.0e-5*27.9235627345264
variable deltaxy equal 1.0e-5*xy
variable deltaxz equal 1.0e-5*xz
variable deltayz equal 1.0e-5*yz
change_box all yz delta 0.000279235627345264 remap units box
  triclinic box = (-13.9618 -13.9618 -13.9618) to (13.9618 13.9618 13.9618) with tilt (0 0 0.000279236)

# Relax atoms positions

minimize 0 1e-10 10000000 10000000
  1 neighbor list requests
  update every 1 steps, delay 0 steps, check yes
Step Temp PotEng Press Pxx Pyy Pzz Pxy Pxz Pyz Lx Ly Lz Volume
30022            0   -5815.0326   0.10812181   0.23650963     0.375232   -0.2873762  -0.24511976   0.20680908   -8.7715482    27.923563    27.923563    27.923563     21772.71
Loop time of 0.225587 on 16 procs (16 MPI x 1 OpenMP) for 348 steps with 768 atoms

Minimization stats:
  Stopping criterion = force tolerance
  Energy initial, next-to-last, final =
  Force two-norm initial, final = 0.0226209 9.93287e-11
  Force max component initial, final = 0.00195325 9.7633e-12
  Final line search alpha, max atom move = 1 9.7633e-12
  Iterations, force evaluations = 348 696

Pair  time (%) = 0.169485 (75.1306)
Neigh time (%) = 0 (0)
Comm  time (%) = 0.0410461 (18.1953)
Outpt time (%) = 0.000639528 (0.283496)
Other time (%) = 0.0144165 (6.39067)

# Obtain new stress tensor

variable tmp equal pe
variable e1 equal -5815.03265135807
variable tmp equal press
variable p1 equal -6.80398440366133e-05
variable tmp equal pxx
variable pxx1 equal -3.1215125306191e-05
variable tmp equal pyy
variable pyy1 equal -0.000102439887534962
variable tmp equal pzz
variable pzz1 equal -7.04645192686868e-05
variable tmp equal pxy
variable pxy1 equal 1.19212809286421e-10
variable tmp equal pxz
variable pxz1 equal 3.75807924011469e-10
variable tmp equal pyz
variable pyz1 equal -3.61225489293583

# Compute elastic constant from pressure tensor

variable C1pos equal 0.000312167395482799
variable C2pos equal 0.00102438675799499
variable C3pos equal 0.000704636094867212
variable C4pos equal 36.12254886999
variable C5pos equal 5.24222642941077e-08
variable C6pos equal -2.85332983279456e-08

# Combine positive and negative

variable C14 equal 0.5*(-0.000312406332526938+0.000312167395482799)
variable C24 equal 0.5*(-0.00102463239128276+0.00102438675799499)
variable C34 equal 0.5*(-0.000704778180327122+0.000704636094867212)
variable C44 equal 0.5*(36.1225490490995+36.12254886999)
variable C54 equal 0.5*(-5.30215962355312e-08+5.24222642941077e-08)
variable C64 equal 0.5*(2.3939945128028e-08+-2.85332983279456e-08)

# Delete dir to make sure it is not reused

variable dir delete

# uxz Perturbation

variable dir equal 5
include displace.mod
# NOTE: This script should not need to be
# modified. See in.elastic for more info.
#
# Find which reference length to use

variable len0 equal 27.9235627345264

# Reset box and simulation parameters

clear
box tilt large
read_restart restart.equil
  triclinic box = (-13.9618 -13.9618 -13.9618) to (13.9618 13.9618 13.9618) with tilt (0 0 0)
  768 atoms
include potential.mod
# NOTE: This script can be modified for different pair styles
# See in.elastic for more info.

# Choose potential
pair_style     rebo
pair_coeff     * * CH.airebo  C
Reading potential file CH.airebo with DATE: 2011-10-25

#pair_style     lcbop
#pair_coeff     C.lcbop
#pair_style     tersoff
#pair_coeff     BNC.tersoff

# Setup neighbor style
neighbor 1.0 nsq
neigh_modify once no every 1 delay 0 check yes

# Setup minimization style
min_style	     cg
min_modify	     dmax 0.01 line quadratic

# Setup output
thermo		500
thermo_style custom step temp pe press pxx pyy pzz pxy pxz pyz lx ly lz vol
thermo_modify norm no

# Output
dump            1 all xtc 100 traj.xtc
dump            2 all xyz 2000 relaxed.xyz
#dump            4 all atom 10 dump.atom

# Negative deformation

variable delta equal -1.0e-5*27.9235627345264
variable deltaxy equal -1.0e-5*xy
variable deltaxz equal -1.0e-5*xz
variable deltayz equal -1.0e-5*yz
change_box all xz delta -0.000279235627345264 remap units box
  triclinic box = (-13.9618 -13.9618 -13.9618) to (13.9618 13.9618 13.9618) with tilt (0 -0.000279236 0)

# Relax atoms positions

minimize 0 1e-10 10000000 10000000
  1 neighbor list requests
  update every 1 steps, delay 0 steps, check yes
Step Temp PotEng Press Pxx Pyy Pzz Pxy Pxz Pyz Lx Ly Lz Volume
30022            0   -5815.0326    0.1081231   0.23652066   0.37521326  -0.28736462  -0.24513981    8.8409973   -0.1373568    27.923563    27.923563    27.923563     21772.71
Loop time of 0.226696 on 16 procs (16 MPI x 1 OpenMP) for 351 steps with 768 atoms

Minimization stats:
  Stopping criterion = force tolerance
  Energy initial, next-to-last, final =
  Force two-norm initial, final = 0.0225444 9.87799e-11
  Force max component initial, final = 0.00181422 9.50826e-12
  Final line search alpha, max atom move = 1 9.50826e-12
  Iterations, force evaluations = 351 702

Pair  time (%) = 0.170547 (75.2316)
Neigh time (%) = 0 (0)
Comm  time (%) = 0.0407879 (17.9923)
Outpt time (%) = 0.000663847 (0.292835)
Other time (%) = 0.0146975 (6.48332)

# Obtain new stress tensor

variable tmp equal pxx
variable pxx1 equal -0.000131844977830303
variable tmp equal pyy
variable pyy1 equal -3.12507407211864e-05
variable tmp equal pzz
variable pzz1 equal -4.1072140954147e-05
variable tmp equal pxy
variable pxy1 equal -4.73452626354623e-10
variable tmp equal pxz
variable pxz1 equal 3.61225489489739
variable tmp equal pyz
variable pyz1 equal 2.84208827402413e-10

# Compute elastic constant from pressure tensor

variable C1neg equal -0.00131846592072392
variable C2neg equal -0.000312495289857236
variable C3neg equal -0.000410712311721814
variable C4neg equal 6.22104267671108e-08
variable C5neg equal 36.1225488927936
variable C6neg equal 2.26066439715352e-08

# Reset box and simulation parameters

clear
box tilt large
read_restart restart.equil
  triclinic box = (-13.9618 -13.9618 -13.9618) to (13.9618 13.9618 13.9618) with tilt (0 0 0)
  768 atoms
include potential.mod
# NOTE: This script can be modified for different pair styles
# See in.elastic for more info.

# Choose potential
pair_style     rebo
pair_coeff     * * CH.airebo  C
Reading potential file CH.airebo with DATE: 2011-10-25

#pair_style     lcbop
#pair_coeff     C.lcbop
#pair_style     tersoff
#pair_coeff     BNC.tersoff

# Setup neighbor style
neighbor 1.0 nsq
neigh_modify once no every 1 delay 0 check yes

# Setup minimization style
min_style	     cg
min_modify	     dmax 0.01 line quadratic

# Setup output
thermo		500
thermo_style custom step temp pe press pxx pyy pzz pxy pxz pyz lx ly lz vol
thermo_modify norm no

# Output
dump            1 all xtc 100 traj.xtc
dump            2 all xyz 2000 relaxed.xyz
#dump            4 all atom 10 dump.atom

# Positive deformation

variable delta equal 1.0e-5*27.9235627345264
variable deltaxy equal 1.0e-5*xy
variable deltaxz equal 1.0e-5*xz
variable deltayz equal 1.0e-5*yz
change_box all xz delta 0.000279235627345264 remap units box
  triclinic box = (-13.9618 -13.9618 -13.9618) to (13.9618 13.9618 13.9618) with tilt (0 0.000279236 0)

# Relax atoms positions

minimize 0 1e-10 10000000 10000000
  1 neighbor list requests
  update every 1 steps, delay 0 steps, check yes
Step Temp PotEng Press Pxx Pyy Pzz Pxy Pxz Pyz Lx Ly Lz Volume
30022            0   -5815.0326   0.10810803    0.2364354   0.37525285  -0.28736416  -0.24513393   -8.4273773  -0.13735862    27.923563    27.923563    27.923563     21772.71
Loop time of 0.228254 on 16 procs (16 MPI x 1 OpenMP) for 351 steps with 768 atoms

Minimization stats:
  Stopping criterion = force tolerance
  Energy initial, next-to-last, final =
  Force two-norm initial, final = 0.0223874 9.85556e-11
  Force max component initial, final = 0.00188968 7.66853e-12
  Final line search alpha, max atom move = 1 7.66853e-12
  Iterations, force evaluations = 351 702

Pair  time (%) = 0.170776 (74.8184)
Neigh time (%) = 0 (0)
Comm  time (%) = 0.0418804 (18.3482)
Outpt time (%) = 0.000716209 (0.313778)
Other time (%) = 0.0148814 (6.51968)

# Obtain new stress tensor

variable tmp equal pe
variable e1 equal -5815.03265135806
variable tmp equal press
variable p1 equal -6.80542379158223e-05
variable tmp equal pxx
variable pxx1 equal -0.000131842692264546
variable tmp equal pyy
variable pyy1 equal -3.12529947844357e-05
variable tmp equal pzz
variable pzz1 equal -4.10670266984855e-05
variable tmp equal pxy
variable pxy1 equal -1.10245705430008e-09
variable tmp equal pxz
variable pxz1 equal -3.61225489692472
variable tmp equal pyz
variable pyz1 equal 1.47872248361035e-10

# Compute elastic constant from pressure tensor

variable C1pos equal 0.00131844306506635
variable C2pos equal 0.000312517830489729
variable C3pos equal 0.000410661169165199
variable C4pos equal -6.08470609766971e-08
variable C5pos equal 36.1225490254275
variable C6pos equal -1.63165996920806e-08

# Combine positive and negative

variable C15 equal 0.5*(-0.00131846592072392+0.00131844306506635)
variable C25 equal 0.5*(-0.000312495289857236+0.000312517830489729)
variable C35 equal 0.5*(-0.000410712311721814+0.000410661169165199)
variable C45 equal 0.5*(6.22104267671108e-08+-6.08470609766971e-08)
variable C55 equal 0.5*(36.1225488927936+36.1225490254275)
variable C65 equal 0.5*(2.26066439715352e-08+-1.63165996920806e-08)

# Delete dir to make sure it is not reused

variable dir delete

# uxy Perturbation

variable dir equal 6
include displace.mod
# NOTE: This script should not need to be
# modified. See in.elastic for more info.
#
# Find which reference length to use

variable len0 equal 27.9235627345261

# Reset box and simulation parameters

clear
box tilt large
read_restart restart.equil
  triclinic box = (-13.9618 -13.9618 -13.9618) to (13.9618 13.9618 13.9618) with tilt (0 0 0)
  768 atoms
include potential.mod
# NOTE: This script can be modified for different pair styles
# See in.elastic for more info.

# Choose potential
pair_style     rebo
pair_coeff     * * CH.airebo  C
Reading potential file CH.airebo with DATE: 2011-10-25

#pair_style     lcbop
#pair_coeff     C.lcbop
#pair_style     tersoff
#pair_coeff     BNC.tersoff

# Setup neighbor style
neighbor 1.0 nsq
neigh_modify once no every 1 delay 0 check yes

# Setup minimization style
min_style	     cg
min_modify	     dmax 0.01 line quadratic

# Setup output
thermo		500
thermo_style custom step temp pe press pxx pyy pzz pxy pxz pyz lx ly lz vol
thermo_modify norm no

# Output
dump            1 all xtc 100 traj.xtc
dump            2 all xyz 2000 relaxed.xyz
#dump            4 all atom 10 dump.atom

# Negative deformation

variable delta equal -1.0e-5*27.9235627345261
variable deltaxy equal -1.0e-5*xy
variable deltaxz equal -1.0e-5*xz
variable deltayz equal -1.0e-5*yz
change_box all xy delta -0.000279235627345261 remap units box
  triclinic box = (-13.9618 -13.9618 -13.9618) to (13.9618 13.9618 13.9618) with tilt (-0.000279236 0 0)

# Relax atoms positions

minimize 0 1e-10 10000000 10000000
  1 neighbor list requests
  update every 1 steps, delay 0 steps, check yes
Step Temp PotEng Press Pxx Pyy Pzz Pxy Pxz Pyz Lx Ly Lz Volume
30022            0   -5815.0326   0.10810605   0.23649535   0.37528061  -0.28745781    8.3890505   0.20680705  -0.13737275    27.923563    27.923563    27.923563     21772.71
Loop time of 0.226507 on 16 procs (16 MPI x 1 OpenMP) for 351 steps with 768 atoms

Minimization stats:
  Stopping criterion = force tolerance
  Energy initial, next-to-last, final =
  Force two-norm initial, final = 0.0223632 9.76085e-11
  Force max component initial, final = 0.00172087 8.19862e-12
  Final line search alpha, max atom move = 1 8.19862e-12
  Iterations, force evaluations = 351 702

Pair  time (%) = 0.170611 (75.3224)
Neigh time (%) = 0 (0)
Comm  time (%) = 0.0405105 (17.8849)
Outpt time (%) = 0.00066188 (0.292211)
Other time (%) = 0.0147243 (6.50056)

# Obtain new stress tensor

variable tmp equal pxx
variable pxx1 equal -0.000102440110372722
variable tmp equal pyy
variable pyy1 equal -7.0478860164425e-05
variable tmp equal pzz
variable pzz1 equal -3.12458164609396e-05
variable tmp equal pxy
variable pxy1 equal 3.61225489733373
variable tmp equal pxz
variable pxz1 equal -1.10892748638306e-09
variable tmp equal pyz
variable pyz1 equal 6.55065890501905e-10

# Compute elastic constant from pressure tensor

variable C1neg equal -0.00102441724614811
variable C2neg equal -0.000704776484289622
variable C3neg equal -0.00031244906678974
variable C4neg equal 6.59189973981057e-08
variable C5neg equal -6.7269618398053e-08
variable C6neg equal 36.1225490006785

# Reset box and simulation parameters

clear
box tilt large
read_restart restart.equil
  triclinic box = (-13.9618 -13.9618 -13.9618) to (13.9618 13.9618 13.9618) with tilt (0 0 0)
  768 atoms
include potential.mod
# NOTE: This script can be modified for different pair styles
# See in.elastic for more info.

# Choose potential
pair_style     rebo
pair_coeff     * * CH.airebo  C
Reading potential file CH.airebo with DATE: 2011-10-25

#pair_style     lcbop
#pair_coeff     C.lcbop
#pair_style     tersoff
#pair_coeff     BNC.tersoff

# Setup neighbor style
neighbor 1.0 nsq
neigh_modify once no every 1 delay 0 check yes

# Setup minimization style
min_style	     cg
min_modify	     dmax 0.01 line quadratic

# Setup output
thermo		500
thermo_style custom step temp pe press pxx pyy pzz pxy pxz pyz lx ly lz vol
thermo_modify norm no

# Output
dump            1 all xtc 100 traj.xtc
dump            2 all xyz 2000 relaxed.xyz
#dump            4 all atom 10 dump.atom

# Positive deformation

variable delta equal 1.0e-5*27.9235627345261
variable deltaxy equal 1.0e-5*xy
variable deltaxz equal 1.0e-5*xz
variable deltayz equal 1.0e-5*yz
change_box all xy delta 0.000279235627345261 remap units box
  triclinic box = (-13.9618 -13.9618 -13.9618) to (13.9618 13.9618 13.9618) with tilt (0.000279236 0 0)

# Relax atoms positions

minimize 0 1e-10 10000000 10000000
  1 neighbor list requests
  update every 1 steps, delay 0 steps, check yes
Step Temp PotEng Press Pxx Pyy Pzz Pxy Pxz Pyz Lx Ly Lz Volume
30022            0   -5815.0326   0.10812508   0.23649529   0.37534241  -0.28746246   -8.8793242   0.20681293  -0.13734268    27.923563    27.923563    27.923563     21772.71
Loop time of 0.22772 on 16 procs (16 MPI x 1 OpenMP) for 351 steps with 768 atoms

Minimization stats:
  Stopping criterion = force tolerance
  Energy initial, next-to-last, final =
  Force two-norm initial, final = 0.0225685 9.84867e-11
  Force max component initial, final = 0.00189092 9.33545e-12
  Final line search alpha, max atom move = 1 9.33545e-12
  Iterations, force evaluations = 351 702

Pair  time (%) = 0.170808 (75.0079)
Neigh time (%) = 0 (0)
Comm  time (%) = 0.0411307 (18.0619)
Outpt time (%) = 0.000627965 (0.275761)
Other time (%) = 0.0151535 (6.65441)

# Obtain new stress tensor

variable tmp equal pe
variable e1 equal -5815.03265135807
variable tmp equal press
variable p1 equal -6.80550281690821e-05
variable tmp equal pxx
variable pxx1 equal -0.00010243843832157
variable tmp equal pyy
variable pyy1 equal -7.04757023321369e-05
variable tmp equal pzz
variable pzz1 equal -3.12509438535391e-05
variable tmp equal pxy
variable pxy1 equal -3.61225489680551
variable tmp equal pxz
variable pxz1 equal -1.23814005434318e-09
variable tmp equal pyz
variable pyz1 equal 8.34555022904774e-10

# Compute elastic constant from pressure tensor

variable C1pos equal 0.00102440052563659
variable C2pos equal 0.000704744905966741
variable C3pos equal 0.000312500340715735
variable C4pos equal -6.77138887221345e-08
variable C5pos equal 6.85617440776542e-08
variable C6pos equal 36.1225489407139

# Combine positive and negative

variable C16 equal 0.5*(-0.00102441724614811+0.00102440052563659)
variable C26 equal 0.5*(-0.000704776484289622+0.000704744905966741)
variable C36 equal 0.5*(-0.00031244906678974+0.000312500340715735)
variable C46 equal 0.5*(6.59189973981057e-08+-6.77138887221345e-08)
variable C56 equal 0.5*(-6.7269618398053e-08+6.85617440776542e-08)
variable C66 equal 0.5*(36.1225490006785+36.1225489407139)

# Delete dir to make sure it is not reused

variable dir delete

# Output final values

variable C11all equal 28.6596997307362
variable C22all equal 28.6596997435206
variable C33all equal 28.6596997474836

variable C12all equal 0.5*(6.94581617296602+6.94581618984467)
variable C13all equal 0.5*(6.94581618608477+6.9458161857087)
variable C23all equal 0.5*(6.94581617504611+6.94581620540836)

variable C44all equal 36.1225489595447
variable C55all equal 36.1225489591106
variable C66all equal 36.1225489706962

variable C14all equal 0.5*(-1.19468522069506e-07+7.92922780359036e-09)
variable C15all equal 0.5*(-1.14278287850506e-08+-1.15924019908897e-08)
variable C16all equal 0.5*(-8.3602557600284e-09+1.00303171006252e-08)

variable C24all equal 0.5*(-1.22816643884972e-07+9.68554182390335e-09)
variable C25all equal 0.5*(1.12703162465024e-08+2.79516665830695e-09)
variable C26all equal 0.5*(-1.57891614405332e-08+2.63512684409525e-09)

variable C34all equal 0.5*(-7.10427299550247e-08+-1.300233552281e-09)
variable C35all equal 0.5*(-2.55712783074971e-08+3.6765847692975e-10)
variable C36all equal 0.5*(2.56369629974976e-08+2.53367435781905e-09)

variable C45all equal 0.5*(6.81682895206851e-10+-2.9966597071175e-10)
variable C46all equal 0.5*(-8.974456620144e-10+-2.2966765999588e-09)
variable C56all equal 0.5*(6.46062839800594e-10+3.1450221397273e-09)

# Average moduli for cubic crystals

variable C11cubic equal (28.6596997307362+28.6596997435206+28.6596997474836)/3.0
variable C12cubic equal (6.94581618140534+6.94581618589674+6.94581619022724)/3.0
variable C44cubic equal (36.1225489595447+36.1225489591106+36.1225489706962)/3.0

variable bulkmodulus equal (28.6596997405801+2*6.94581618584311)/3.0
variable shearmodulus1 equal 36.1225489631172
variable shearmodulus2 equal (28.6596997405801-6.94581618584311)/2.0
variable poissonratio equal 1.0/(1.0+28.6596997405801/6.94581618584311)

# For Stillinger-Weber silicon, the analytical results
# are known to be (E. R. Cowley, 1988):
#               C11 = 151.4 GPa
#               C12 = 76.4 GPa
#               C44 = 56.4 GPa

print "========================================="
=========================================
print "Components of the Elastic Constant Tensor"
Components of the Elastic Constant Tensor
print "========================================="
=========================================

Elastic Constant C11all = 28.6596997307362 GPa
Elastic Constant C22all = 28.6596997435206 GPa
Elastic Constant C33all = 28.6596997474836 GPa

Elastic Constant C12all = 6.94581618140534 GPa
Elastic Constant C13all = 6.94581618589674 GPa
Elastic Constant C23all = 6.94581619022724 GPa

Elastic Constant C44all = 36.1225489595447 GPa
Elastic Constant C55all = 36.1225489591106 GPa
Elastic Constant C66all = 36.1225489706962 GPa

Elastic Constant C14all = -5.57696471329578e-08 GPa
Elastic Constant C15all = -1.15101153879701e-08 GPa
Elastic Constant C16all = 8.350306702984e-10 GPa

Elastic Constant C24all = -5.65655510305343e-08 GPa
Elastic Constant C25all = 7.03274145240467e-09 GPa
Elastic Constant C26all = -6.57701729821897e-09 GPa

Elastic Constant C34all = -3.61714817536529e-08 GPa
Elastic Constant C35all = -1.26018099152837e-08 GPa
Elastic Constant C36all = 1.40853186776583e-08 GPa

Elastic Constant C45all = 1.91008462247551e-10 GPa
Elastic Constant C46all = -1.5970611309866e-09 GPa
Elastic Constant C56all = 1.89554248976395e-09 GPa

print "========================================="
=========================================
print "Average properties for a cubic crystal"
Average properties for a cubic crystal
print "========================================="
=========================================

Bulk Modulus = 14.1837773707554 GPa
Shear Modulus 1 = 36.1225489631172 GPa
Shear Modulus 2 = 10.8569417773685 GPa
Poisson Ratio = 0.195076970663654
Deformation size: 1.0e-5

print "Lattice_type	lattice_constant	bulk_modulus	poisson	     c11	     c12         c44	" file elastic_constants.out
Lattice_type	lattice_constant	bulk_modulus	poisson	     c11	     c12         c44
sc    10.0    14.1837773707554     0.195076970663654     28.6596997307362     6.94581618140534     36.1225489595447
