read_data       P8-15_D3_4.xyz
  orthogonal box = (-58.1637 -58.1637 -58.1637) to (58.1637 58.1637 58.1637)
  reading atoms ...
  12288 atoms
change_box 	all triclinic
  triclinic box = (-58.1637 -58.1637 -58.1637) to (58.1637 58.1637 58.1637) with tilt (0 0 0)

include potential.mod
# NOTE: This script can be modified for different pair styles
# See in.elastic for more info.

# Choose potential
pair_style     rebo
pair_coeff     * * CH.airebo  C
Reading potential file CH.airebo with DATE: 2011-10-25

#pair_style     lcbop
#pair_coeff     C.lcbop
#pair_style     tersoff
#pair_coeff     BNC.tersoff

# Setup neighbor style
neighbor 1.0 nsq
neigh_modify once no every 1 delay 0 check yes

# Setup minimization style
min_style	     cg
min_modify	     dmax 0.01 line quadratic

# Setup output
thermo		500
thermo_style custom step temp pe press pxx pyy pzz pxy pxz pyz lx ly lz vol
thermo_modify norm no

# Output
dump            1 all xtc 100 traj.xtc
dump            2 all xyz 2000 relaxed.xyz
#dump            4 all atom 10 dump.atom

# Compute initial state
fix 3 all box/relax  aniso 0.0
minimize 0 1e-10 10000000 10000000
  1 neighbor list requests
  update every 1 steps, delay 0 steps, check yes
Step Temp PotEng Press Pxx Pyy Pzz Pxy Pxz Pyz Lx Ly Lz Volume
0            0   -84187.356    17703.162    17703.162    17703.157    17703.168 -0.00023672758 0.00082250075 -0.00034544687    116.32738    116.32738    116.32738      1574149
Averages over the last 5033 of 10066 rows, steps 2516500 to 5032324:
Temp PotEng Press Pxx Pyy Pzz Pxy Pxz Pyz Lx Ly Lz Volume
0 -95250.7 2.59278e-11 4.34609e-11 -5.36393e-12 3.96863e-11 1.55724e-09 6.31098e-09 -1.29592e-08 109.677 109.677 109.677 1.31933e+06
Loop time of 35999.1 on 16 procs (16 MPI x 1 OpenMP) for 5032324 steps with 12288 atoms

Minimization stats:
  Stopping criterion = max force evaluations
  Energy initial, next-to-last, final =
  Force two-norm initial, final = 30434.6 6.36129e-09
  Force max component initial, final = 17393.5 5.44926e-09
  Final line search alpha, max atom move = 1 5.44926e-09
  Iterations, force evaluations = 5032324 10000000

Pair  time (%) = 33766.8 (93.7991)
Neigh time (%) = 0.576001 (0.00160004)
Comm  time (%) = 1325.87 (3.68306)
Outpt time (%) = 28.3607 (0.0787816)
Other time (%) = 877.478 (2.4375)

#dump rel all xyz 10 relaxed-*.xyz
#dump 3 all xyz 10 relaxed.xyz
#dump 3 all atom 10 dump.atom

variable tmp equal pxx
variable pxx0 equal -6.23922988356902e-09
variable tmp equal pyy
variable pyy0 equal 4.85617818670538e-10
variable tmp equal pzz
variable pzz0 equal 3.65170293161037e-09
variable tmp equal pyz
variable pyz0 equal -7.75932781446373e-09
variable tmp equal pxz
variable pxz0 equal 3.07692848060071e-09
variable tmp equal pxy
variable pxy0 equal 3.48226434357e-10

variable tmp equal lx
variable lx0 equal 109.677474052519
variable tmp equal ly
variable ly0 equal 109.677474052508
variable tmp equal lz
variable lz0 equal 109.677474052515

# These formulas define the derivatives w.r.t. strain components
# Constants uses $, variables use v_
variable d1 equal -(v_pxx1--6.23922988356902e-09)/(v_delta/v_len0)*0.0001
variable d2 equal -(v_pyy1-4.85617818670538e-10)/(v_delta/v_len0)*0.0001
variable d3 equal -(v_pzz1-3.65170293161037e-09)/(v_delta/v_len0)*0.0001
variable d4 equal -(v_pyz1--7.75932781446373e-09)/(v_delta/v_len0)*0.0001
variable d5 equal -(v_pxz1-3.07692848060071e-09)/(v_delta/v_len0)*0.0001
variable d6 equal -(v_pxy1-3.48226434357e-10)/(v_delta/v_len0)*0.0001

displace_atoms all random 1e-05 1e-05 1e-05 87287 units box

# Write restart
unfix 3
write_restart restart.equil

# uxx Perturbation

variable dir equal 1
include displace.mod
# NOTE: This script should not need to be
# modified. See in.elastic for more info.
#
# Find which reference length to use

variable len0 equal 109.677474052519

# Reset box and simulation parameters

clear
box tilt large
read_restart restart.equil
  triclinic box = (-54.8387 -54.8387 -54.8387) to (54.8387 54.8387 54.8387) with tilt (0 0 0)
  12288 atoms
include potential.mod
# NOTE: This script can be modified for different pair styles
# See in.elastic for more info.

# Choose potential
pair_style     rebo
pair_coeff     * * CH.airebo  C
Reading potential file CH.airebo with DATE: 2011-10-25

#pair_style     lcbop
#pair_coeff     C.lcbop
#pair_style     tersoff
#pair_coeff     BNC.tersoff

# Setup neighbor style
neighbor 1.0 nsq
neigh_modify once no every 1 delay 0 check yes

# Setup minimization style
min_style	     cg
min_modify	     dmax 0.01 line quadratic

# Setup output
thermo		500
thermo_style custom step temp pe press pxx pyy pzz pxy pxz pyz lx ly lz vol
thermo_modify norm no

# Output
dump            1 all xtc 100 traj.xtc
dump            2 all xyz 2000 relaxed.xyz
#dump            4 all atom 10 dump.atom

# Negative deformation

variable delta equal -1.0e-5*109.677474052519
variable deltaxy equal -1.0e-5*xy
variable deltaxz equal -1.0e-5*xz
variable deltayz equal -1.0e-5*yz
change_box all x delta 0 -0.00109677474052519 xy delta -0 xz delta -0 remap units box
  triclinic box = (-54.8387 -54.8387 -54.8387) to (54.8376 54.8387 54.8387) with tilt (0 0 0)
  triclinic box = (-54.8387 -54.8387 -54.8387) to (54.8376 54.8387 54.8387) with tilt (0 0 0)
  triclinic box = (-54.8387 -54.8387 -54.8387) to (54.8376 54.8387 54.8387) with tilt (0 0 0)

# Relax atoms positions

minimize 0 1e-10 10000000 10000000
  1 neighbor list requests
  update every 1 steps, delay 0 steps, check yes
Step Temp PotEng Press Pxx Pyy Pzz Pxy Pxz Pyz Lx Ly Lz Volume
5032324            0   -95250.709    2.2728242    4.3765069    1.2301087    1.2118569 0.0029707794 -0.018781417 -0.012104603    109.67638    109.67747    109.67747    1319313.4
Averages over the last 4 of 8 rows, steps 5034000 to 5035090:
Temp PotEng Press Pxx Pyy Pzz Pxy Pxz Pyz Lx Ly Lz Volume
0 -95250.7 0.118711 0.361212 -0.00253857 -0.00254028 6.12623e-09 4.64379e-09 -2.8878e-08 109.676 109.677 109.677 1.31931e+06
Loop time of 19.2837 on 16 procs (16 MPI x 1 OpenMP) for 2766 steps with 12288 atoms

Minimization stats:
  Stopping criterion = force tolerance
  Energy initial, next-to-last, final =
  Force two-norm initial, final = 0.087581 9.89536e-11
  Force max component initial, final = 0.00169535 3.12211e-12
  Final line search alpha, max atom move = 1 3.12211e-12
  Iterations, force evaluations = 2766 5532

Pair  time (%) = 18.3036 (94.9176)
Neigh time (%) = 0 (0)
Comm  time (%) = 0.700822 (3.63427)
Outpt time (%) = 0.0166022 (0.0860945)
Other time (%) = 0.262658 (1.36207)

# Obtain new stress tensor

variable tmp equal pxx
variable pxx1 equal 0.361211606841001
variable tmp equal pyy
variable pyy1 equal -0.0025385746340044
variable tmp equal pzz
variable pzz1 equal -0.00254029478204
variable tmp equal pxy
variable pxy1 equal -1.9504583578175e-09
variable tmp equal pxz
variable pxz1 equal 6.88399846460137e-09
variable tmp equal pyz
variable pyz1 equal 6.75458603820227e-09

# Compute elastic constant from pressure tensor

variable C1neg equal 3.61211613080231
variable C2neg equal -0.0253857511962222
variable C3neg equal -0.0254029843374293
variable C4neg equal 1.4513913852666e-07
variable C5neg equal 3.80706998400066e-08
variable C6neg equal -2.2986847921745e-08

# Reset box and simulation parameters

clear
box tilt large
read_restart restart.equil
  triclinic box = (-54.8387 -54.8387 -54.8387) to (54.8387 54.8387 54.8387) with tilt (0 0 0)
  12288 atoms
include potential.mod
# NOTE: This script can be modified for different pair styles
# See in.elastic for more info.

# Choose potential
pair_style     rebo
pair_coeff     * * CH.airebo  C
Reading potential file CH.airebo with DATE: 2011-10-25

#pair_style     lcbop
#pair_coeff     C.lcbop
#pair_style     tersoff
#pair_coeff     BNC.tersoff

# Setup neighbor style
neighbor 1.0 nsq
neigh_modify once no every 1 delay 0 check yes

# Setup minimization style
min_style	     cg
min_modify	     dmax 0.01 line quadratic

# Setup output
thermo		500
thermo_style custom step temp pe press pxx pyy pzz pxy pxz pyz lx ly lz vol
thermo_modify norm no

# Output
dump            1 all xtc 100 traj.xtc
dump            2 all xyz 2000 relaxed.xyz
#dump            4 all atom 10 dump.atom

# Positive deformation

variable delta equal 1.0e-5*109.677474052519
variable deltaxy equal 1.0e-5*xy
variable deltaxz equal 1.0e-5*xz
variable deltayz equal 1.0e-5*yz
change_box all x delta 0 0.00109677474052519 xy delta 0 xz delta 0 remap units box
  triclinic box = (-54.8387 -54.8387 -54.8387) to (54.8398 54.8387 54.8387) with tilt (0 0 0)
  triclinic box = (-54.8387 -54.8387 -54.8387) to (54.8398 54.8387 54.8387) with tilt (0 0 0)
  triclinic box = (-54.8387 -54.8387 -54.8387) to (54.8398 54.8387 54.8387) with tilt (0 0 0)

# Relax atoms positions

minimize 0 1e-10 10000000 10000000
  1 neighbor list requests
  update every 1 steps, delay 0 steps, check yes
Step Temp PotEng Press Pxx Pyy Pzz Pxy Pxz Pyz Lx Ly Lz Volume
5032324            0   -95250.709   -2.2706292   -4.3670993   -1.2132683   -1.2315199 0.0029720811 -0.018778126 -0.012105146    109.67857    109.67747    109.67747    1319339.8
Averages over the last 4 of 8 rows, steps 5034000 to 5035097:
Temp PotEng Press Pxx Pyy Pzz Pxy Pxz Pyz Lx Ly Lz Volume
0 -95250.7 -0.118763 -0.361297 0.00250471 0.002503 8.73314e-09 5.87605e-09 -3.27757e-08 109.679 109.677 109.677 1.31934e+06
Loop time of 19.2179 on 16 procs (16 MPI x 1 OpenMP) for 2773 steps with 12288 atoms

Minimization stats:
  Stopping criterion = force tolerance
  Energy initial, next-to-last, final =
  Force two-norm initial, final = 0.0876323 9.89761e-11
  Force max component initial, final = 0.00189795 2.75073e-12
  Final line search alpha, max atom move = 1 2.75073e-12
  Iterations, force evaluations = 2773 5546

Pair  time (%) = 18.3247 (95.3524)
Neigh time (%) = 0 (0)
Comm  time (%) = 0.61952 (3.22366)
Outpt time (%) = 0.0163403 (0.0850266)
Other time (%) = 0.257318 (1.33895)

# Obtain new stress tensor

variable tmp equal pe
variable e1 equal -95250.7086205775
variable tmp equal press
variable p1 equal -0.118763148544265
variable tmp equal pxx
variable pxx1 equal -0.361297013275672
variable tmp equal pyy
variable pyy1 equal 0.00250464326707184
variable tmp equal pzz
variable pzz1 equal 0.00250292437580656
variable tmp equal pxy
variable pxy1 equal -1.45819682468594e-09
variable tmp equal pxz
variable pxz1 equal 8.76296740684624e-09
variable tmp equal pyz
variable pyz1 equal 8.31838404348597e-09

# Compute elastic constant from pressure tensor

variable C1pos equal 3.61297007036442
variable C2pos equal -0.0250464278145402
variable C3pos equal -0.0250292072410363
variable C4pos equal -1.60777118579497e-07
variable C5pos equal -5.68603892624553e-08
variable C6pos equal 1.80642325904294e-08

# Combine positive and negative

variable C11 equal 0.5*(3.61211613080231+3.61297007036442)
variable C21 equal 0.5*(-0.0253857511962222+-0.0250464278145402)
variable C31 equal 0.5*(-0.0254029843374293+-0.0250292072410363)
variable C41 equal 0.5*(1.4513913852666e-07+-1.60777118579497e-07)
variable C51 equal 0.5*(3.80706998400066e-08+-5.68603892624553e-08)
variable C61 equal 0.5*(-2.2986847921745e-08+1.80642325904294e-08)

# Delete dir to make sure it is not reused

variable dir delete

# uyy Perturbation

variable dir equal 2
include displace.mod
# NOTE: This script should not need to be
# modified. See in.elastic for more info.
#
# Find which reference length to use

variable len0 equal 109.677474052508

# Reset box and simulation parameters

clear
box tilt large
read_restart restart.equil
  triclinic box = (-54.8387 -54.8387 -54.8387) to (54.8387 54.8387 54.8387) with tilt (0 0 0)
  12288 atoms
include potential.mod
# NOTE: This script can be modified for different pair styles
# See in.elastic for more info.

# Choose potential
pair_style     rebo
pair_coeff     * * CH.airebo  C
Reading potential file CH.airebo with DATE: 2011-10-25

#pair_style     lcbop
#pair_coeff     C.lcbop
#pair_style     tersoff
#pair_coeff     BNC.tersoff

# Setup neighbor style
neighbor 1.0 nsq
neigh_modify once no every 1 delay 0 check yes

# Setup minimization style
min_style	     cg
min_modify	     dmax 0.01 line quadratic

# Setup output
thermo		500
thermo_style custom step temp pe press pxx pyy pzz pxy pxz pyz lx ly lz vol
thermo_modify norm no

# Output
dump            1 all xtc 100 traj.xtc
dump            2 all xyz 2000 relaxed.xyz
#dump            4 all atom 10 dump.atom

# Negative deformation

variable delta equal -1.0e-5*109.677474052508
variable deltaxy equal -1.0e-5*xy
variable deltaxz equal -1.0e-5*xz
variable deltayz equal -1.0e-5*yz
change_box all y delta 0 -0.00109677474052508 yz delta -0 remap units box
  triclinic box = (-54.8387 -54.8387 -54.8387) to (54.8387 54.8376 54.8387) with tilt (0 0 0)
  triclinic box = (-54.8387 -54.8387 -54.8387) to (54.8387 54.8376 54.8387) with tilt (0 0 0)

# Relax atoms positions

minimize 0 1e-10 10000000 10000000
  1 neighbor list requests
  update every 1 steps, delay 0 steps, check yes
Step Temp PotEng Press Pxx Pyy Pzz Pxy Pxz Pyz Lx Ly Lz Volume
5032324            0   -95250.709    2.2728247    1.2263189    4.3803003     1.211855 0.0029715404 -0.018781312 -0.012106752    109.67747    109.67638    109.67747    1319313.4
Averages over the last 4 of 8 rows, steps 5034000 to 5035094:
Temp PotEng Press Pxx Pyy Pzz Pxy Pxz Pyz Lx Ly Lz Volume
0 -95250.7 0.118711 -0.00254028 0.361212 -0.00253857 4.05859e-09 7.14752e-09 -2.67931e-08 109.677 109.676 109.677 1.31931e+06
Loop time of 19.209 on 16 procs (16 MPI x 1 OpenMP) for 2770 steps with 12288 atoms

Minimization stats:
  Stopping criterion = force tolerance
  Energy initial, next-to-last, final =
  Force two-norm initial, final = 0.0878278 9.96539e-11
  Force max component initial, final = 0.00172877 3.22249e-12
  Final line search alpha, max atom move = 1 3.22249e-12
  Iterations, force evaluations = 2770 5540

Pair  time (%) = 18.3352 (95.4513)
Neigh time (%) = 0 (0)
Comm  time (%) = 0.601832 (3.13308)
Outpt time (%) = 0.0164782 (0.0857837)
Other time (%) = 0.255457 (1.32988)

# Obtain new stress tensor

variable tmp equal pxx
variable pxx1 equal -0.00254029542862081
variable tmp equal pyy
variable pyy1 equal 0.361211610851935
variable tmp equal pzz
variable pzz1 equal -0.00253857638071096
variable tmp equal pxy
variable pxy1 equal -1.81029681946643e-09
variable tmp equal pxz
variable pxz1 equal 6.94109767825947e-09
variable tmp equal pyz
variable pyz1 equal 6.71701740251294e-09

# Compute elastic constant from pressure tensor

variable C1neg equal -0.0254028918939093
variable C2neg equal 3.61211610366317
variable C3neg equal -0.0253858003241389
variable C4neg equal 1.44763452169767e-07
variable C5neg equal 3.86416919765876e-08
variable C6neg equal -2.15852325382343e-08

# Reset box and simulation parameters

clear
box tilt large
read_restart restart.equil
  triclinic box = (-54.8387 -54.8387 -54.8387) to (54.8387 54.8387 54.8387) with tilt (0 0 0)
  12288 atoms
include potential.mod
# NOTE: This script can be modified for different pair styles
# See in.elastic for more info.

# Choose potential
pair_style     rebo
pair_coeff     * * CH.airebo  C
Reading potential file CH.airebo with DATE: 2011-10-25

#pair_style     lcbop
#pair_coeff     C.lcbop
#pair_style     tersoff
#pair_coeff     BNC.tersoff

# Setup neighbor style
neighbor 1.0 nsq
neigh_modify once no every 1 delay 0 check yes

# Setup minimization style
min_style	     cg
min_modify	     dmax 0.01 line quadratic

# Setup output
thermo		500
thermo_style custom step temp pe press pxx pyy pzz pxy pxz pyz lx ly lz vol
thermo_modify norm no

# Output
dump            1 all xtc 100 traj.xtc
dump            2 all xyz 2000 relaxed.xyz
#dump            4 all atom 10 dump.atom

# Positive deformation

variable delta equal 1.0e-5*109.677474052508
variable deltaxy equal 1.0e-5*xy
variable deltaxz equal 1.0e-5*xz
variable deltayz equal 1.0e-5*yz
change_box all y delta 0 0.00109677474052508 yz delta 0 remap units box
  triclinic box = (-54.8387 -54.8387 -54.8387) to (54.8387 54.8398 54.8387) with tilt (0 0 0)
  triclinic box = (-54.8387 -54.8387 -54.8387) to (54.8387 54.8398 54.8387) with tilt (0 0 0)

# Relax atoms positions

minimize 0 1e-10 10000000 10000000
  1 neighbor list requests
  update every 1 steps, delay 0 steps, check yes
Step Temp PotEng Press Pxx Pyy Pzz Pxy Pxz Pyz Lx Ly Lz Volume
5032324            0   -95250.709   -2.2706297   -1.2170579   -4.3633081   -1.2315231 0.0029713192  -0.01877823 -0.012103002    109.67747    109.67857    109.67747    1319339.8
Averages over the last 4 of 8 rows, steps 5034000 to 5035096:
Temp PotEng Press Pxx Pyy Pzz Pxy Pxz Pyz Lx Ly Lz Volume
0 -95250.7 -0.118763 0.00250299 -0.361297 0.00250471 9.01779e-09 5.61699e-09 -3.2521e-08 109.677 109.679 109.677 1.31934e+06
Loop time of 19.2452 on 16 procs (16 MPI x 1 OpenMP) for 2772 steps with 12288 atoms

Minimization stats:
  Stopping criterion = force tolerance
  Energy initial, next-to-last, final =
  Force two-norm initial, final = 0.087385 9.91864e-11
  Force max component initial, final = 0.00170165 2.3971e-12
  Final line search alpha, max atom move = 1 2.3971e-12
  Iterations, force evaluations = 2772 5544

Pair  time (%) = 18.3587 (95.3939)
Neigh time (%) = 0 (0)
Comm  time (%) = 0.651582 (3.38569)
Outpt time (%) = 0.0164389 (0.0854182)
Other time (%) = 0.218437 (1.13502)

# Obtain new stress tensor

variable tmp equal pe
variable e1 equal -95250.7086205775
variable tmp equal press
variable p1 equal -0.118763150695468
variable tmp equal pxx
variable pxx1 equal 0.00250292112902326
variable tmp equal pyy
variable pyy1 equal -0.361297012265766
variable tmp equal pzz
variable pzz1 equal 0.00250463905033966
variable tmp equal pxy
variable pxy1 equal -1.67378416399696e-09
variable tmp equal pxz
variable pxz1 equal 8.50710143235797e-09
variable tmp equal pyz
variable pyz1 equal 8.06471541393971e-09

# Compute elastic constant from pressure tensor

variable C1pos equal -0.0250292736825314
variable C2pos equal 3.61297012751384
variable C3pos equal -0.0250463539863673
variable C4pos equal -1.58240432284034e-07
variable C5pos equal -5.43017295175726e-08
variable C6pos equal 2.02201059835396e-08

# Combine positive and negative

variable C12 equal 0.5*(-0.0254028918939093+-0.0250292736825314)
variable C22 equal 0.5*(3.61211610366317+3.61297012751384)
variable C32 equal 0.5*(-0.0253858003241389+-0.0250463539863673)
variable C42 equal 0.5*(1.44763452169767e-07+-1.58240432284034e-07)
variable C52 equal 0.5*(3.86416919765876e-08+-5.43017295175726e-08)
variable C62 equal 0.5*(-2.15852325382343e-08+2.02201059835396e-08)

# Delete dir to make sure it is not reused

variable dir delete

# uzz Perturbation

variable dir equal 3
include displace.mod
# NOTE: This script should not need to be
# modified. See in.elastic for more info.
#
# Find which reference length to use

variable len0 equal 109.677474052515

# Reset box and simulation parameters

clear
box tilt large
read_restart restart.equil
  triclinic box = (-54.8387 -54.8387 -54.8387) to (54.8387 54.8387 54.8387) with tilt (0 0 0)
  12288 atoms
include potential.mod
# NOTE: This script can be modified for different pair styles
# See in.elastic for more info.

# Choose potential
pair_style     rebo
pair_coeff     * * CH.airebo  C
Reading potential file CH.airebo with DATE: 2011-10-25

#pair_style     lcbop
#pair_coeff     C.lcbop
#pair_style     tersoff
#pair_coeff     BNC.tersoff

# Setup neighbor style
neighbor 1.0 nsq
neigh_modify once no every 1 delay 0 check yes

# Setup minimization style
min_style	     cg
min_modify	     dmax 0.01 line quadratic

# Setup output
thermo		500
thermo_style custom step temp pe press pxx pyy pzz pxy pxz pyz lx ly lz vol
thermo_modify norm no

# Output
dump            1 all xtc 100 traj.xtc
dump            2 all xyz 2000 relaxed.xyz
#dump            4 all atom 10 dump.atom

# Negative deformation

variable delta equal -1.0e-5*109.677474052515
variable deltaxy equal -1.0e-5*xy
variable deltaxz equal -1.0e-5*xz
variable deltayz equal -1.0e-5*yz
change_box all z delta 0 -0.00109677474052515 remap units box
  triclinic box = (-54.8387 -54.8387 -54.8387) to (54.8387 54.8387 54.8376) with tilt (0 0 0)

# Relax atoms positions

minimize 0 1e-10 10000000 10000000
  1 neighbor list requests
  update every 1 steps, delay 0 steps, check yes
Step Temp PotEng Press Pxx Pyy Pzz Pxy Pxz Pyz Lx Ly Lz Volume
5032324            0   -95250.709    2.2728237    1.2263165    1.2301119    4.3620427 0.0029725013  -0.01877913 -0.012104993    109.67747    109.67747    109.67638    1319313.4
Averages over the last 4 of 8 rows, steps 5034000 to 5035098:
Temp PotEng Press Pxx Pyy Pzz Pxy Pxz Pyz Lx Ly Lz Volume
0 -95250.7 0.118711 -0.00253856 -0.00254027 0.361212 1.9063e-09 8.89322e-09 -2.45165e-08 109.677 109.677 109.676 1.31931e+06
Loop time of 19.2676 on 16 procs (16 MPI x 1 OpenMP) for 2774 steps with 12288 atoms

Minimization stats:
  Stopping criterion = force tolerance
  Energy initial, next-to-last, final =
  Force two-norm initial, final = 0.0874755 9.89172e-11
  Force max component initial, final = 0.00181003 3.22683e-12
  Final line search alpha, max atom move = 1 3.22683e-12
  Iterations, force evaluations = 2774 5548

Pair  time (%) = 18.3652 (95.3163)
Neigh time (%) = 0 (0)
Comm  time (%) = 0.623358 (3.23526)
Outpt time (%) = 0.016409 (0.0851632)
Other time (%) = 0.262665 (1.36324)

# Obtain new stress tensor

variable tmp equal pxx
variable pxx1 equal -0.00253857750932053
variable tmp equal pyy
variable pyy1 equal -0.00254029092140704
variable tmp equal pzz
variable pzz1 equal 0.361211608751582
variable tmp equal pxy
variable pxy1 equal -1.6780619523378e-09
variable tmp equal pxz
variable pxz1 equal 8.08399445160569e-09
variable tmp equal pyz
variable pyz1 equal 7.79489880738146e-09

# Compute elastic constant from pressure tensor

variable C1neg equal -0.0253857127009065
variable C2neg equal -0.0254029140702486
variable C3neg equal 3.61211605099879
variable C4neg equal 1.55542266218452e-07
variable C5neg equal 5.00706597100498e-08
variable C6neg equal -2.0262883866948e-08

# Reset box and simulation parameters

clear
box tilt large
read_restart restart.equil
  triclinic box = (-54.8387 -54.8387 -54.8387) to (54.8387 54.8387 54.8387) with tilt (0 0 0)
  12288 atoms
include potential.mod
# NOTE: This script can be modified for different pair styles
# See in.elastic for more info.

# Choose potential
pair_style     rebo
pair_coeff     * * CH.airebo  C
Reading potential file CH.airebo with DATE: 2011-10-25

#pair_style     lcbop
#pair_coeff     C.lcbop
#pair_style     tersoff
#pair_coeff     BNC.tersoff

# Setup neighbor style
neighbor 1.0 nsq
neigh_modify once no every 1 delay 0 check yes

# Setup minimization style
min_style	     cg
min_modify	     dmax 0.01 line quadratic

# Setup output
thermo		500
thermo_style custom step temp pe press pxx pyy pzz pxy pxz pyz lx ly lz vol
thermo_modify norm no

# Output
dump            1 all xtc 100 traj.xtc
dump            2 all xyz 2000 relaxed.xyz
#dump            4 all atom 10 dump.atom

# Positive deformation

variable delta equal 1.0e-5*109.677474052515
variable deltaxy equal 1.0e-5*xy
variable deltaxz equal 1.0e-5*xz
variable deltayz equal 1.0e-5*yz
change_box all z delta 0 0.00109677474052515 remap units box
  triclinic box = (-54.8387 -54.8387 -54.8387) to (54.8387 54.8387 54.8398) with tilt (0 0 0)

# Relax atoms positions

minimize 0 1e-10 10000000 10000000
  1 neighbor list requests
  update every 1 steps, delay 0 steps, check yes
Step Temp PotEng Press Pxx Pyy Pzz Pxy Pxz Pyz Lx Ly Lz Volume
5032324            0   -95250.709   -2.2706287   -1.2170606   -1.2132665    -4.381559 0.0029703577 -0.018780416 -0.012104759    109.67747    109.67747    109.67857    1319339.8
Averages over the last 4 of 8 rows, steps 5034000 to 5035091:
Temp PotEng Press Pxx Pyy Pzz Pxy Pxz Pyz Lx Ly Lz Volume
0 -95250.7 -0.118763 0.0025047 0.00250299 -0.361297 1.375e-08 2.65763e-09 -3.73754e-08 109.677 109.677 109.679 1.31934e+06
Loop time of 19.2242 on 16 procs (16 MPI x 1 OpenMP) for 2767 steps with 12288 atoms

Minimization stats:
  Stopping criterion = force tolerance
  Energy initial, next-to-last, final =
  Force two-norm initial, final = 0.0877377 9.9749e-11
  Force max component initial, final = 0.00165702 3.584e-12
  Final line search alpha, max atom move = 1 3.584e-12
  Iterations, force evaluations = 2767 5534

Pair  time (%) = 18.3233 (95.3139)
Neigh time (%) = 0 (0)
Comm  time (%) = 0.663029 (3.44894)
Outpt time (%) = 0.0166318 (0.0865153)
Other time (%) = 0.221194 (1.15061)

# Obtain new stress tensor

variable tmp equal pe
variable e1 equal -95250.7086205775
variable tmp equal press
variable p1 equal -0.118763151578433
variable tmp equal pxx
variable pxx1 equal 0.00250463717420777
variable tmp equal pyy
variable pyy1 equal 0.00250292406948874
variable tmp equal pzz
variable pzz1 equal -0.361297015978996
variable tmp equal pxy
variable pxy1 equal -1.85757161575091e-09
variable tmp equal pxz
variable pxz1 equal 8.04342686526225e-09
variable tmp equal pyz
variable pyz1 equal 7.84635260874476e-09

# Compute elastic constant from pressure tensor

variable C1pos equal -0.0250464341343765
variable C2pos equal -0.0250292358387092
variable C3pos equal 3.61297019630699
variable C4pos equal -1.56056804232085e-07
variable C5pos equal -4.96649838466154e-08
variable C6pos equal 2.20579805010791e-08

# Combine positive and negative

variable C13 equal 0.5*(-0.0253857127009065+-0.0250464341343765)
variable C23 equal 0.5*(-0.0254029140702486+-0.0250292358387092)
variable C33 equal 0.5*(3.61211605099879+3.61297019630699)
variable C43 equal 0.5*(1.55542266218452e-07+-1.56056804232085e-07)
variable C53 equal 0.5*(5.00706597100498e-08+-4.96649838466154e-08)
variable C63 equal 0.5*(-2.0262883866948e-08+2.20579805010791e-08)

# Delete dir to make sure it is not reused

variable dir delete

# uyz Perturbation

variable dir equal 4
include displace.mod
# NOTE: This script should not need to be
# modified. See in.elastic for more info.
#
# Find which reference length to use

variable len0 equal 109.677474052515

# Reset box and simulation parameters

clear
box tilt large
read_restart restart.equil
  triclinic box = (-54.8387 -54.8387 -54.8387) to (54.8387 54.8387 54.8387) with tilt (0 0 0)
  12288 atoms
include potential.mod
# NOTE: This script can be modified for different pair styles
# See in.elastic for more info.

# Choose potential
pair_style     rebo
pair_coeff     * * CH.airebo  C
Reading potential file CH.airebo with DATE: 2011-10-25

#pair_style     lcbop
#pair_coeff     C.lcbop
#pair_style     tersoff
#pair_coeff     BNC.tersoff

# Setup neighbor style
neighbor 1.0 nsq
neigh_modify once no every 1 delay 0 check yes

# Setup minimization style
min_style	     cg
min_modify	     dmax 0.01 line quadratic

# Setup output
thermo		500
thermo_style custom step temp pe press pxx pyy pzz pxy pxz pyz lx ly lz vol
thermo_modify norm no

# Output
dump            1 all xtc 100 traj.xtc
dump            2 all xyz 2000 relaxed.xyz
#dump            4 all atom 10 dump.atom

# Negative deformation

variable delta equal -1.0e-5*109.677474052515
variable deltaxy equal -1.0e-5*xy
variable deltaxz equal -1.0e-5*xz
variable deltayz equal -1.0e-5*yz
change_box all yz delta -0.00109677474052515 remap units box
  triclinic box = (-54.8387 -54.8387 -54.8387) to (54.8387 54.8387 54.8387) with tilt (0 0 -0.00109677)

# Relax atoms positions

minimize 0 1e-10 10000000 10000000
  1 neighbor list requests
  update every 1 steps, delay 0 steps, check yes
Step Temp PotEng Press Pxx Pyy Pzz Pxy Pxz Pyz Lx Ly Lz Volume
5032324            0   -95250.709 0.0010407441 0.0045870593 0.0083782694 -0.0098430964 0.0029704488 -0.018779193    2.2881681    109.67747    109.67747    109.67747    1319326.6
Averages over the last 4 of 8 rows, steps 5034000 to 5035012:
Temp PotEng Press Pxx Pyy Pzz Pxy Pxz Pyz Lx Ly Lz Volume
0 -95250.7 -6.46808e-05 -3.16289e-05 -8.33109e-05 -7.91026e-05 -7.53802e-09 -1.03463e-09 0.591909 109.677 109.677 109.677 1.31933e+06
Loop time of 18.6402 on 16 procs (16 MPI x 1 OpenMP) for 2688 steps with 12288 atoms

Minimization stats:
  Stopping criterion = force tolerance
  Energy initial, next-to-last, final =
  Force two-norm initial, final = 0.0870559 9.9302e-11
  Force max component initial, final = 0.00178464 4.54193e-12
  Final line search alpha, max atom move = 1 4.54193e-12
  Iterations, force evaluations = 2688 5376

Pair  time (%) = 17.7744 (95.3548)
Neigh time (%) = 0 (0)
Comm  time (%) = 0.598915 (3.21302)
Outpt time (%) = 0.0164879 (0.0884531)
Other time (%) = 0.250472 (1.34372)

# Obtain new stress tensor

variable tmp equal pxx
variable pxx1 equal -3.11939623299365e-05
variable tmp equal pyy
variable pyy1 equal -8.29605821235453e-05
variable tmp equal pzz
variable pzz1 equal -7.869319126497e-05
variable tmp equal pxy
variable pxy1 equal 4.50636837542758e-12
variable tmp equal pxz
variable pxz1 equal 2.02560072021374e-11
variable tmp equal pyz
variable pyz1 equal 0.591909150990222

# Compute elastic constant from pressure tensor

variable C1neg equal -0.000311877231000529
variable C2neg equal -0.00082961067741364
variable C3neg equal -0.000786968429679016
variable C4neg equal 5.9190915874955
variable C5neg equal -3.05667247339857e-08
variable C6neg equal -3.43720065981572e-09

# Reset box and simulation parameters

clear
box tilt large
read_restart restart.equil
  triclinic box = (-54.8387 -54.8387 -54.8387) to (54.8387 54.8387 54.8387) with tilt (0 0 0)
  12288 atoms
include potential.mod
# NOTE: This script can be modified for different pair styles
# See in.elastic for more info.

# Choose potential
pair_style     rebo
pair_coeff     * * CH.airebo  C
Reading potential file CH.airebo with DATE: 2011-10-25

#pair_style     lcbop
#pair_coeff     C.lcbop
#pair_style     tersoff
#pair_coeff     BNC.tersoff

# Setup neighbor style
neighbor 1.0 nsq
neigh_modify once no every 1 delay 0 check yes

# Setup minimization style
min_style	     cg
min_modify	     dmax 0.01 line quadratic

# Setup output
thermo		500
thermo_style custom step temp pe press pxx pyy pzz pxy pxz pyz lx ly lz vol
thermo_modify norm no

# Output
dump            1 all xtc 100 traj.xtc
dump            2 all xyz 2000 relaxed.xyz
#dump            4 all atom 10 dump.atom

# Positive deformation

variable delta equal 1.0e-5*109.677474052515
variable deltaxy equal 1.0e-5*xy
variable deltaxz equal 1.0e-5*xz
variable deltayz equal 1.0e-5*yz
change_box all yz delta 0.00109677474052515 remap units box
  triclinic box = (-54.8387 -54.8387 -54.8387) to (54.8387 54.8387 54.8387) with tilt (0 0 0.00109677)

# Relax atoms positions

minimize 0 1e-10 10000000 10000000
  1 neighbor list requests
  update every 1 steps, delay 0 steps, check yes
Step Temp PotEng Press Pxx Pyy Pzz Pxy Pxz Pyz Lx Ly Lz Volume
5032324            0   -95250.709 0.0010416492 0.0045862742 0.0083815354 -0.009842862 0.0029724129 -0.018780349   -2.3123779    109.67747    109.67747    109.67747    1319326.6
Averages over the last 4 of 8 rows, steps 5034000 to 5035015:
Temp PotEng Press Pxx Pyy Pzz Pxy Pxz Pyz Lx Ly Lz Volume
0 -95250.7 -6.46833e-05 -3.16307e-05 -8.33215e-05 -7.90977e-05 3.35856e-09 -5.93225e-09 -0.591909 109.677 109.677 109.677 1.31933e+06
Loop time of 18.7216 on 16 procs (16 MPI x 1 OpenMP) for 2691 steps with 12288 atoms

Minimization stats:
  Stopping criterion = force tolerance
  Energy initial, next-to-last, final =
  Force two-norm initial, final = 0.0873318 9.97278e-11
  Force max component initial, final = 0.00187847 3.53997e-12
  Final line search alpha, max atom move = 1 3.53997e-12
  Iterations, force evaluations = 2691 5382

Pair  time (%) = 17.8031 (95.0937)
Neigh time (%) = 0 (0)
Comm  time (%) = 0.632824 (3.38017)
Outpt time (%) = 0.0165358 (0.0883245)
Other time (%) = 0.269178 (1.43779)

# Obtain new stress tensor

variable tmp equal pe
variable e1 equal -95250.7086196279
variable tmp equal press
variable p1 equal -6.42823644703445e-05
variable tmp equal pxx
variable pxx1 equal -3.11933287203054e-05
variable tmp equal pyy
variable pyy1 equal -8.29606958678209e-05
variable tmp equal pzz
variable pzz1 equal -7.86930688229073e-05
variable tmp equal pxy
variable pxy1 equal -9.06558788785754e-12
variable tmp equal pxz
variable pxz1 equal 2.42877939391762e-11
variable tmp equal pyz
variable pyz1 equal -0.591909144260767

# Compute elastic constant from pressure tensor

variable C1pos equal 0.000311870894904218
variable C2pos equal 0.000829611814856396
variable C3pos equal 0.000786967205258389
variable C4pos equal 5.91909136501439
variable C5pos equal 3.05264068666153e-08
variable C6pos equal 3.57292022244858e-09

# Combine positive and negative

variable C14 equal 0.5*(-0.000311877231000529+0.000311870894904218)
variable C24 equal 0.5*(-0.00082961067741364+0.000829611814856396)
variable C34 equal 0.5*(-0.000786968429679016+0.000786967205258389)
variable C44 equal 0.5*(5.9190915874955+5.91909136501439)
variable C54 equal 0.5*(-3.05667247339857e-08+3.05264068666153e-08)
variable C64 equal 0.5*(-3.43720065981572e-09+3.57292022244858e-09)

# Delete dir to make sure it is not reused

variable dir delete

# uxz Perturbation

variable dir equal 5
include displace.mod
# NOTE: This script should not need to be
# modified. See in.elastic for more info.
#
# Find which reference length to use

variable len0 equal 109.677474052515

# Reset box and simulation parameters

clear
box tilt large
read_restart restart.equil
  triclinic box = (-54.8387 -54.8387 -54.8387) to (54.8387 54.8387 54.8387) with tilt (0 0 0)
  12288 atoms
include potential.mod
# NOTE: This script can be modified for different pair styles
# See in.elastic for more info.

# Choose potential
pair_style     rebo
pair_coeff     * * CH.airebo  C
Reading potential file CH.airebo with DATE: 2011-10-25

#pair_style     lcbop
#pair_coeff     C.lcbop
#pair_style     tersoff
#pair_coeff     BNC.tersoff

# Setup neighbor style
neighbor 1.0 nsq
neigh_modify once no every 1 delay 0 check yes

# Setup minimization style
min_style	     cg
min_modify	     dmax 0.01 line quadratic

# Setup output
thermo		500
thermo_style custom step temp pe press pxx pyy pzz pxy pxz pyz lx ly lz vol
thermo_modify norm no

# Output
dump            1 all xtc 100 traj.xtc
dump            2 all xyz 2000 relaxed.xyz
#dump            4 all atom 10 dump.atom

# Negative deformation

variable delta equal -1.0e-5*109.677474052515
variable deltaxy equal -1.0e-5*xy
variable deltaxz equal -1.0e-5*xz
variable deltayz equal -1.0e-5*yz
change_box all xz delta -0.00109677474052515 remap units box
  triclinic box = (-54.8387 -54.8387 -54.8387) to (54.8387 54.8387 54.8387) with tilt (0 -0.00109677 0)

# Relax atoms positions

minimize 0 1e-10 10000000 10000000
  1 neighbor list requests
  update every 1 steps, delay 0 steps, check yes
Step Temp PotEng Press Pxx Pyy Pzz Pxy Pxz Pyz Lx Ly Lz Volume
5032324            0   -95250.709 0.0010405367 0.0045874864 0.0083775546 -0.0098434309 0.0029713952    2.2814938 -0.012104299    109.67747    109.67747    109.67747    1319326.6
Averages over the last 4 of 8 rows, steps 5034000 to 5035001:
Temp PotEng Press Pxx Pyy Pzz Pxy Pxz Pyz Lx Ly Lz Volume
0 -95250.7 -6.4683e-05 -8.91439e-05 -3.15582e-05 -7.33468e-05 -4.99443e-09 0.591909 -1.64445e-10 109.677 109.677 109.677 1.31933e+06
Loop time of 18.6661 on 16 procs (16 MPI x 1 OpenMP) for 2677 steps with 12288 atoms

Minimization stats:
  Stopping criterion = force tolerance
  Energy initial, next-to-last, final =
  Force two-norm initial, final = 0.0869763 9.99127e-11
  Force max component initial, final = 0.00176952 4.15225e-12
  Final line search alpha, max atom move = 1 4.15225e-12
  Iterations, force evaluations = 2677 5354

Pair  time (%) = 17.7115 (94.8861)
Neigh time (%) = 0 (0)
Comm  time (%) = 0.662979 (3.55178)
Outpt time (%) = 0.016527 (0.0885402)
Other time (%) = 0.27506 (1.47358)

# Obtain new stress tensor

variable tmp equal pxx
variable pxx1 equal -8.87223040336276e-05
variable tmp equal pyy
variable pyy1 equal -3.11881218910036e-05
variable tmp equal pzz
variable pzz1 equal -7.29432455891476e-05
variable tmp equal pxy
variable pxy1 equal 1.0846347626448e-11
variable tmp equal pxz
variable pxz1 equal 0.591909157962209
variable tmp equal pyz
variable pyz1 equal -3.10584020973028e-11

# Compute elastic constant from pressure tensor

variable C1neg equal -0.00088716064803744
variable C2neg equal -0.000311886075088223
variable C3neg equal -0.000729468972920792
variable C4neg equal 7.72826941236643e-08
variable C5neg equal 5.91909154885281
variable C6neg equal -3.37380086730552e-09

# Reset box and simulation parameters

clear
box tilt large
read_restart restart.equil
  triclinic box = (-54.8387 -54.8387 -54.8387) to (54.8387 54.8387 54.8387) with tilt (0 0 0)
  12288 atoms
include potential.mod
# NOTE: This script can be modified for different pair styles
# See in.elastic for more info.

# Choose potential
pair_style     rebo
pair_coeff     * * CH.airebo  C
Reading potential file CH.airebo with DATE: 2011-10-25

#pair_style     lcbop
#pair_coeff     C.lcbop
#pair_style     tersoff
#pair_coeff     BNC.tersoff

# Setup neighbor style
neighbor 1.0 nsq
neigh_modify once no every 1 delay 0 check yes

# Setup minimization style
min_style	     cg
min_modify	     dmax 0.01 line quadratic

# Setup output
thermo		500
thermo_style custom step temp pe press pxx pyy pzz pxy pxz pyz lx ly lz vol
thermo_modify norm no

# Output
dump            1 all xtc 100 traj.xtc
dump            2 all xyz 2000 relaxed.xyz
#dump            4 all atom 10 dump.atom

# Positive deformation

variable delta equal 1.0e-5*109.677474052515
variable deltaxy equal 1.0e-5*xy
variable deltaxz equal 1.0e-5*xz
variable deltayz equal 1.0e-5*yz
change_box all xz delta 0.00109677474052515 remap units box
  triclinic box = (-54.8387 -54.8387 -54.8387) to (54.8387 54.8387 54.8387) with tilt (0 0.00109677 0)

# Relax atoms positions

minimize 0 1e-10 10000000 10000000
  1 neighbor list requests
  update every 1 steps, delay 0 steps, check yes
Step Temp PotEng Press Pxx Pyy Pzz Pxy Pxz Pyz Lx Ly Lz Volume
5032324            0   -95250.709 0.0010418566 0.0045900261 0.0083802607 -0.009844717  0.002971465   -2.3190533 -0.012105455    109.67747    109.67747    109.67747    1319326.6
Averages over the last 4 of 8 rows, steps 5034000 to 5035003:
Temp PotEng Press Pxx Pyy Pzz Pxy Pxz Pyz Lx Ly Lz Volume
0 -95250.7 -6.46805e-05 -8.91401e-05 -3.15468e-05 -7.33547e-05 -4.26132e-09 -0.591909 2.52424e-09 109.677 109.677 109.677 1.31933e+06
Loop time of 18.5938 on 16 procs (16 MPI x 1 OpenMP) for 2679 steps with 12288 atoms

Minimization stats:
  Stopping criterion = force tolerance
  Energy initial, next-to-last, final =
  Force two-norm initial, final = 0.087411 9.96532e-11
  Force max component initial, final = 0.0016409 3.68108e-12
  Final line search alpha, max atom move = 1 3.68108e-12
  Iterations, force evaluations = 2679 5358

Pair  time (%) = 17.726 (95.3327)
Neigh time (%) = 0 (0)
Comm  time (%) = 0.596928 (3.21036)
Outpt time (%) = 0.016475 (0.0886048)
Other time (%) = 0.254431 (1.36837)

# Obtain new stress tensor

variable tmp equal pe
variable e1 equal -95250.708619628
variable tmp equal press
variable p1 equal -6.42838098540252e-05
variable tmp equal pxx
variable pxx1 equal -8.87214248970288e-05
variable tmp equal pyy
variable pyy1 equal -3.11872867200792e-05
variable tmp equal pzz
variable pzz1 equal -7.29427179449677e-05
variable tmp equal pxy
variable pxy1 equal -4.75369012470607e-11
variable tmp equal pxz
variable pxz1 equal -0.591909160262042
variable tmp equal pyz
variable pyz1 equal -1.81770160476049e-11

# Compute elastic constant from pressure tensor

variable C1pos equal 0.000887151856671453
variable C2pos equal 0.000311877723378979
variable C3pos equal 0.000729463696478993
variable C4pos equal -7.74115079841613e-08
variable C5pos equal 5.91909163338971
variable C6pos equal 3.95763335604061e-09

# Combine positive and negative

variable C15 equal 0.5*(-0.00088716064803744+0.000887151856671453)
variable C25 equal 0.5*(-0.000311886075088223+0.000311877723378979)
variable C35 equal 0.5*(-0.000729468972920792+0.000729463696478993)
variable C45 equal 0.5*(7.72826941236643e-08+-7.74115079841613e-08)
variable C55 equal 0.5*(5.91909154885281+5.91909163338971)
variable C65 equal 0.5*(-3.37380086730552e-09+3.95763335604061e-09)

# Delete dir to make sure it is not reused

variable dir delete

# uxy Perturbation

variable dir equal 6
include displace.mod
# NOTE: This script should not need to be
# modified. See in.elastic for more info.
#
# Find which reference length to use

variable len0 equal 109.677474052508

# Reset box and simulation parameters

clear
box tilt large
read_restart restart.equil
  triclinic box = (-54.8387 -54.8387 -54.8387) to (54.8387 54.8387 54.8387) with tilt (0 0 0)
  12288 atoms
include potential.mod
# NOTE: This script can be modified for different pair styles
# See in.elastic for more info.

# Choose potential
pair_style     rebo
pair_coeff     * * CH.airebo  C
Reading potential file CH.airebo with DATE: 2011-10-25

#pair_style     lcbop
#pair_coeff     C.lcbop
#pair_style     tersoff
#pair_coeff     BNC.tersoff

# Setup neighbor style
neighbor 1.0 nsq
neigh_modify once no every 1 delay 0 check yes

# Setup minimization style
min_style	     cg
min_modify	     dmax 0.01 line quadratic

# Setup output
thermo		500
thermo_style custom step temp pe press pxx pyy pzz pxy pxz pyz lx ly lz vol
thermo_modify norm no

# Output
dump            1 all xtc 100 traj.xtc
dump            2 all xyz 2000 relaxed.xyz
#dump            4 all atom 10 dump.atom

# Negative deformation

variable delta equal -1.0e-5*109.677474052508
variable deltaxy equal -1.0e-5*xy
variable deltaxz equal -1.0e-5*xz
variable deltayz equal -1.0e-5*yz
change_box all xy delta -0.00109677474052508 remap units box
  triclinic box = (-54.8387 -54.8387 -54.8387) to (54.8387 54.8387 54.8387) with tilt (-0.00109677 0 0)

# Relax atoms positions

minimize 0 1e-10 10000000 10000000
  1 neighbor list requests
  update every 1 steps, delay 0 steps, check yes
Step Temp PotEng Press Pxx Pyy Pzz Pxy Pxz Pyz Lx Ly Lz Volume
5032324            0   -95250.709 0.0010413442 0.0045869538 0.0084113607 -0.0098742819    2.3032443 -0.018779809 -0.012106046    109.67747    109.67747    109.67747    1319326.6
Averages over the last 4 of 8 rows, steps 5034000 to 5035007:
Temp PotEng Press Pxx Pyy Pzz Pxy Pxz Pyz Lx Ly Lz Volume
0 -95250.7 -6.46845e-05 -8.33921e-05 -7.90533e-05 -3.16082e-05 0.591909 -8.31784e-09 -3.87573e-10 109.677 109.677 109.677 1.31933e+06
Loop time of 18.6711 on 16 procs (16 MPI x 1 OpenMP) for 2683 steps with 12288 atoms

Minimization stats:
  Stopping criterion = force tolerance
  Energy initial, next-to-last, final =
  Force two-norm initial, final = 0.0872903 9.93669e-11
  Force max component initial, final = 0.00159258 3.11999e-12
  Final line search alpha, max atom move = 1 3.11999e-12
  Iterations, force evaluations = 2683 5366

Pair  time (%) = 17.7514 (95.0744)
Neigh time (%) = 0 (0)
Comm  time (%) = 0.650253 (3.48268)
Outpt time (%) = 0.0164327 (0.0880114)
Other time (%) = 0.252976 (1.35491)

# Obtain new stress tensor

variable tmp equal pxx
variable pxx1 equal -8.29724970219313e-05
variable tmp equal pyy
variable pyy1 equal -7.86886367308726e-05
variable tmp equal pzz
variable pzz1 equal -3.11919062136169e-05
variable tmp equal pxy
variable pxy1 equal 0.59190914661982
variable tmp equal pxz
variable pxz1 equal 1.31200251121831e-11
variable tmp equal pyz
variable pyz1 equal -3.28108487267848e-12

# Compute elastic constant from pressure tensor

variable C1neg equal -0.000829662577920477
variable C2neg equal -0.000786891223486913
variable C3neg equal -0.000311955579165485
variable C4neg equal 7.75604672959105e-08
variable C5neg equal -3.06380845548853e-08
variable C6neg equal 5.91909146271593

# Reset box and simulation parameters

clear
box tilt large
read_restart restart.equil
  triclinic box = (-54.8387 -54.8387 -54.8387) to (54.8387 54.8387 54.8387) with tilt (0 0 0)
  12288 atoms
include potential.mod
# NOTE: This script can be modified for different pair styles
# See in.elastic for more info.

# Choose potential
pair_style     rebo
pair_coeff     * * CH.airebo  C
Reading potential file CH.airebo with DATE: 2011-10-25

#pair_style     lcbop
#pair_coeff     C.lcbop
#pair_style     tersoff
#pair_coeff     BNC.tersoff

# Setup neighbor style
neighbor 1.0 nsq
neigh_modify once no every 1 delay 0 check yes

# Setup minimization style
min_style	     cg
min_modify	     dmax 0.01 line quadratic

# Setup output
thermo		500
thermo_style custom step temp pe press pxx pyy pzz pxy pxz pyz lx ly lz vol
thermo_modify norm no

# Output
dump            1 all xtc 100 traj.xtc
dump            2 all xyz 2000 relaxed.xyz
#dump            4 all atom 10 dump.atom

# Positive deformation

variable delta equal 1.0e-5*109.677474052508
variable deltaxy equal 1.0e-5*xy
variable deltaxz equal 1.0e-5*xz
variable deltayz equal 1.0e-5*yz
change_box all xy delta 0.00109677474052508 remap units box
  triclinic box = (-54.8387 -54.8387 -54.8387) to (54.8387 54.8387 54.8387) with tilt (0.00109677 0 0)

# Relax atoms positions

minimize 0 1e-10 10000000 10000000
  1 neighbor list requests
  update every 1 steps, delay 0 steps, check yes
Step Temp PotEng Press Pxx Pyy Pzz Pxy Pxz Pyz Lx Ly Lz Volume
5032324            0   -95250.709 0.0010410491  0.004588374 0.0084111392 -0.0098763658   -2.2973014 -0.018779738 -0.012103705    109.67747    109.67747    109.67747    1319326.6
Loop time of 18.5521 on 16 procs (16 MPI x 1 OpenMP) for 2674 steps with 12288 atoms

Minimization stats:
  Stopping criterion = force tolerance
  Energy initial, next-to-last, final =
  Force two-norm initial, final = 0.0870975 9.94744e-11
  Force max component initial, final = 0.00169907 3.93272e-12
  Final line search alpha, max atom move = 1 3.93272e-12
  Iterations, force evaluations = 2674 5348

Pair  time (%) = 17.7098 (95.4599)
Neigh time (%) = 0 (0)
Comm  time (%) = 0.602639 (3.24836)
Outpt time (%) = 0.0152593 (0.0822513)
Other time (%) = 0.224377 (1.20945)

# Obtain new stress tensor

variable tmp equal pe
variable e1 equal -95250.7086196279
variable tmp equal press
variable p1 equal -6.42858643970348e-05
variable tmp equal pxx
variable pxx1 equal -8.29739402937237e-05
variable tmp equal pyy
variable pyy1 equal -7.8690355404547e-05
variable tmp equal pzz
variable pzz1 equal -3.11932974928336e-05
variable tmp equal pxy
variable pxy1 equal -0.591909150391042
variable tmp equal pxz
variable pxz1 equal -5.09743823414809e-12
variable tmp equal pyz
variable pyz1 equal -1.28967560232139e-11

# Compute elastic constant from pressure tensor

variable C1pos equal 0.000829677010638401
variable C2pos equal 0.000786908410223657
variable C3pos equal 0.000311969491957652
variable C4pos equal -7.74643105844052e-08
variable C5pos equal 3.08202591883486e-08
variable C6pos equal 5.91909150739268

# Combine positive and negative

variable C16 equal 0.5*(-0.000829662577920477+0.000829677010638401)
variable C26 equal 0.5*(-0.000786891223486913+0.000786908410223657)
variable C36 equal 0.5*(-0.000311955579165485+0.000311969491957652)
variable C46 equal 0.5*(7.75604672959105e-08+-7.74643105844052e-08)
variable C56 equal 0.5*(-3.06380845548853e-08+3.08202591883486e-08)
variable C66 equal 0.5*(5.91909146271593+5.91909150739268)

# Delete dir to make sure it is not reused

variable dir delete

# Output final values

variable C11all equal 3.61254310058337
variable C22all equal 3.61254311558851
variable C33all equal 3.61254312365289

variable C12all equal 0.5*(-0.0252160827882204+-0.0252160895053812)
variable C13all equal 0.5*(-0.0252160734176415+-0.0252160957892328)
variable C23all equal 0.5*(-0.0252160749544789+-0.0252160771552531)

variable C44all equal 5.91909147625494
variable C55all equal 5.91909159112126
variable C66all equal 5.91909148505431

variable C14all equal 0.5*(-3.16804815548937e-09+-7.8189900264185e-09)
variable C15all equal 0.5*(-4.39568299348634e-09+-9.39484471122435e-09)
variable C16all equal 0.5*(7.21635896199814e-09+-2.4613076656578e-09)

variable C24all equal 0.5*(5.6872137798843e-10+-6.73849005713349e-09)
variable C25all equal 0.5*(-4.17585462199723e-09+-7.8300187704925e-09)
variable C26all equal 0.5*(8.59336837203285e-09+-6.8256327734735e-10)

variable C34all equal 0.5*(-6.12210313477232e-10+-2.57269006816494e-10)
variable C35all equal 0.5*(-2.63822089950063e-09+2.028379317172e-10)
variable C36all equal 0.5*(6.95639608351735e-09+8.97548317065551e-10)

variable C45all equal 0.5*(-6.44069302484983e-11+-2.01589336852022e-11)
variable C46all equal 0.5*(4.80783557526466e-11+6.78597813164301e-11)
variable C56all equal 0.5*(9.10873167316506e-11+2.91916244367545e-10)

# Average moduli for cubic crystals

variable C11cubic equal (3.61254310058337+3.61254311558851+3.61254312365289)/3.0
variable C12cubic equal (-0.0252160861468008+-0.0252160846034372+-0.025216076054866)/3.0
variable C44cubic equal (5.91909147625494+5.91909159112126+5.91909148505431)/3.0

variable bulkmodulus equal (3.61254311327492+2*-0.025216082268368)/3.0
variable shearmodulus1 equal 5.91909151747684
variable shearmodulus2 equal (3.61254311327492--0.025216082268368)/2.0
variable poissonratio equal 1.0/(1.0+3.61254311327492/-0.025216082268368)

# For Stillinger-Weber silicon, the analytical results
# are known to be (E. R. Cowley, 1988):
#               C11 = 151.4 GPa
#               C12 = 76.4 GPa
#               C44 = 56.4 GPa

print "========================================="
=========================================
print "Components of the Elastic Constant Tensor"
Components of the Elastic Constant Tensor
print "========================================="
=========================================

Elastic Constant C11all = 3.61254310058337 GPa
Elastic Constant C22all = 3.61254311558851 GPa
Elastic Constant C33all = 3.61254312365289 GPa

Elastic Constant C12all = -0.0252160861468008 GPa
Elastic Constant C13all = -0.0252160846034372 GPa
Elastic Constant C23all = -0.025216076054866 GPa

Elastic Constant C44all = 5.91909147625494 GPa
Elastic Constant C55all = 5.91909159112126 GPa
Elastic Constant C66all = 5.91909148505431 GPa

Elastic Constant C14all = -5.49351909095393e-09 GPa
Elastic Constant C15all = -6.89526385235535e-09 GPa
Elastic Constant C16all = 2.37752564817017e-09 GPa

Elastic Constant C24all = -3.08488433957253e-09 GPa
Elastic Constant C25all = -6.00293669624487e-09 GPa
Elastic Constant C26all = 3.95540254734275e-09 GPa

Elastic Constant C34all = -4.34739660146863e-10 GPa
Elastic Constant C35all = -1.21769148389172e-09 GPa
Elastic Constant C36all = 3.92697220029145e-09 GPa

Elastic Constant C45all = -4.22829319668503e-11 GPa
Elastic Constant C46all = 5.79690685345384e-11 GPa
Elastic Constant C56all = 1.91501780549598e-10 GPa

print "========================================="
=========================================
print "Average properties for a cubic crystal"
Average properties for a cubic crystal
print "========================================="
=========================================

Bulk Modulus = 1.18737031624606 GPa
Shear Modulus 1 = 5.91909151747684 GPa
Shear Modulus 2 = 1.81887959777164 GPa
Poisson Ratio = -0.00702921201507874
Deformation size: 1.0e-5

print "Lattice_type	lattice_constant	bulk_modulus	poisson	     c11	     c12         c44	" file elastic_constants.out
Lattice_type	lattice_constant	bulk_modulus	poisson	     c11	     c12         c44
sc    10.0    1.18737031624606     -0.00702921201507874     3.61254310058337     -0.0252160861468008     5.91909147625494
