read_data       P8-7_D3_1.xyz
  orthogonal box = (-29.1306 -29.1306 -29.1306) to (29.1306 29.1306 29.1306)
  reading atoms ...
  3072 atoms
change_box 	all triclinic
  triclinic box = (-29.1306 -29.1306 -29.1306) to (29.1306 29.1306 29.1306) with tilt (0 0 0)

include potential.mod
# NOTE: This script can be modified for different pair styles
# See in.elastic for more info.

# Choose potential
pair_style     rebo
pair_coeff     * * CH.airebo  C
Reading potential file CH.airebo with DATE: 2011-10-25

#pair_style     lcbop
#pair_coeff     C.lcbop
#pair_style     tersoff
#pair_coeff     BNC.tersoff

# Setup neighbor style
neighbor 1.0 nsq
neigh_modify once no every 1 delay 0 check yes

# Setup minimization style
min_style	     cg
min_modify	     dmax 0.01 line quadratic

# Setup output
thermo		500
thermo_style custom step temp pe press pxx pyy pzz pxy pxz pyz lx ly lz vol
thermo_modify norm no

# Output
dump            1 all xtc 100 traj.xtc
dump            2 all xyz 2000 relaxed.xyz
#dump            4 all atom 10 dump.atom

# Compute initial state
fix 3 all box/relax  aniso 0.0
minimize 0 1e-10 10000000 10000000
  1 neighbor list requests
  update every 1 steps, delay 0 steps, check yes
Step Temp PotEng Press Pxx Pyy Pzz Pxy Pxz Pyz Lx Ly Lz Volume
0            0   -21157.979    33243.456    33243.458    33243.442    33243.469 -0.0020273833 0.0041511505 -0.00010697884     58.26118     58.26118     58.26118    197759.72
Averages over the last 126 of 251 rows, steps 62500 to 124824:
Temp PotEng Press Pxx Pyy Pzz Pxy Pxz Pyz Lx Ly Lz Volume
0 -23764.7 0.374428 0.432131 0.402603 0.288549 0.000314222 -0.000932216 -0.000229122 55.8117 55.8117 55.8117 173851
Loop time of 197.59 on 16 procs (16 MPI x 1 OpenMP) for 124824 steps with 3072 atoms

Minimization stats:
  Stopping criterion = force tolerance
  Energy initial, next-to-last, final =
  Force two-norm initial, final = 7449.58 8.67238e-11
  Force max component initial, final = 4103.31 1.87097e-11
  Final line search alpha, max atom move = 1 1.87097e-11
  Iterations, force evaluations = 124824 199065

Pair  time (%) = 174.143 (88.1339)
Neigh time (%) = 0.0355252 (0.0179793)
Comm  time (%) = 13.0337 (6.59637)
Outpt time (%) = 0.294028 (0.148808)
Other time (%) = 10.0829 (5.10295)

#dump rel all xyz 10 relaxed-*.xyz
#dump 3 all xyz 10 relaxed.xyz
#dump 3 all atom 10 dump.atom

variable tmp equal pxx
variable pxx0 equal 1.65168857833121e-10
variable tmp equal pyy
variable pyy0 equal 1.04143139101518e-10
variable tmp equal pzz
variable pzz0 equal -7.8451115080796e-11
variable tmp equal pyz
variable pyz0 equal -3.52269651813399e-09
variable tmp equal pxz
variable pxz0 equal -9.40419748692993e-09
variable tmp equal pxy
variable pxy0 equal -1.03562224350046e-08

variable tmp equal lx
variable lx0 equal 55.8128916161325
variable tmp equal ly
variable ly0 equal 55.8128916161328
variable tmp equal lz
variable lz0 equal 55.8128916161448

# These formulas define the derivatives w.r.t. strain components
# Constants uses $, variables use v_
variable d1 equal -(v_pxx1-1.65168857833121e-10)/(v_delta/v_len0)*0.0001
variable d2 equal -(v_pyy1-1.04143139101518e-10)/(v_delta/v_len0)*0.0001
variable d3 equal -(v_pzz1--7.8451115080796e-11)/(v_delta/v_len0)*0.0001
variable d4 equal -(v_pyz1--3.52269651813399e-09)/(v_delta/v_len0)*0.0001
variable d5 equal -(v_pxz1--9.40419748692993e-09)/(v_delta/v_len0)*0.0001
variable d6 equal -(v_pxy1--1.03562224350046e-08)/(v_delta/v_len0)*0.0001

displace_atoms all random 1e-05 1e-05 1e-05 87287 units box

# Write restart
unfix 3
write_restart restart.equil

# uxx Perturbation

variable dir equal 1
include displace.mod
# NOTE: This script should not need to be
# modified. See in.elastic for more info.
#
# Find which reference length to use

variable len0 equal 55.8128916161325

# Reset box and simulation parameters

clear
box tilt large
read_restart restart.equil
  triclinic box = (-27.9064 -27.9064 -27.9064) to (27.9064 27.9064 27.9064) with tilt (0 0 0)
  3072 atoms
include potential.mod
# NOTE: This script can be modified for different pair styles
# See in.elastic for more info.

# Choose potential
pair_style     rebo
pair_coeff     * * CH.airebo  C
Reading potential file CH.airebo with DATE: 2011-10-25

#pair_style     lcbop
#pair_coeff     C.lcbop
#pair_style     tersoff
#pair_coeff     BNC.tersoff

# Setup neighbor style
neighbor 1.0 nsq
neigh_modify once no every 1 delay 0 check yes

# Setup minimization style
min_style	     cg
min_modify	     dmax 0.01 line quadratic

# Setup output
thermo		500
thermo_style custom step temp pe press pxx pyy pzz pxy pxz pyz lx ly lz vol
thermo_modify norm no

# Output
dump            1 all xtc 100 traj.xtc
dump            2 all xyz 2000 relaxed.xyz
#dump            4 all atom 10 dump.atom

# Negative deformation

variable delta equal -1.0e-5*55.8128916161325
variable deltaxy equal -1.0e-5*xy
variable deltaxz equal -1.0e-5*xz
variable deltayz equal -1.0e-5*yz
change_box all x delta 0 -0.000558128916161325 xy delta -0 xz delta -0 remap units box
  triclinic box = (-27.9064 -27.9064 -27.9064) to (27.9059 27.9064 27.9064) with tilt (0 0 0)
  triclinic box = (-27.9064 -27.9064 -27.9064) to (27.9059 27.9064 27.9064) with tilt (0 0 0)
  triclinic box = (-27.9064 -27.9064 -27.9064) to (27.9059 27.9064 27.9064) with tilt (0 0 0)

# Relax atoms positions

minimize 0 1e-10 10000000 10000000
  1 neighbor list requests
  update every 1 steps, delay 0 steps, check yes
Step Temp PotEng Press Pxx Pyy Pzz Pxy Pxz Pyz Lx Ly Lz Volume
124824            0   -23764.699    4.3053786    8.3800689     2.182205     2.353862 -0.018593724 -0.039639808 -0.041709312    55.812333    55.812892    55.812892    173859.82
Loop time of 2.70832 on 16 procs (16 MPI x 1 OpenMP) for 1428 steps with 3072 atoms

Minimization stats:
  Stopping criterion = force tolerance
  Energy initial, next-to-last, final =
  Force two-norm initial, final = 0.0450592 9.99858e-11
  Force max component initial, final = 0.00175901 5.29227e-12
  Final line search alpha, max atom move = 1 5.29227e-12
  Iterations, force evaluations = 1428 2856

Pair  time (%) = 2.44416 (90.2462)
Neigh time (%) = 0 (0)
Comm  time (%) = 0.186664 (6.89223)
Outpt time (%) = 0.00424708 (0.156816)
Other time (%) = 0.073254 (2.70477)

# Obtain new stress tensor

variable tmp equal pxx
variable pxx1 equal 1.71338788536471
variable tmp equal pyy
variable pyy1 equal 0.710479334039638
variable tmp equal pzz
variable pzz1 equal 0.710479875689478
variable tmp equal pxy
variable pxy1 equal 6.73663228843033e-10
variable tmp equal pxz
variable pxz1 equal -3.5751475999154e-11
variable tmp equal pyz
variable pyz1 equal -4.01311955062848e-10

# Compute elastic constant from pressure tensor

variable C1neg equal 17.1338788519954
variable C2neg equal 7.10479333935495
variable C3neg equal 7.10479875767929
variable C4neg equal 3.12138456307114e-08
variable C5neg equal 9.36844601093078e-08
variable C6neg equal 1.10298856638476e-07

# Reset box and simulation parameters

clear
box tilt large
read_restart restart.equil
  triclinic box = (-27.9064 -27.9064 -27.9064) to (27.9064 27.9064 27.9064) with tilt (0 0 0)
  3072 atoms
include potential.mod
# NOTE: This script can be modified for different pair styles
# See in.elastic for more info.

# Choose potential
pair_style     rebo
pair_coeff     * * CH.airebo  C
Reading potential file CH.airebo with DATE: 2011-10-25

#pair_style     lcbop
#pair_coeff     C.lcbop
#pair_style     tersoff
#pair_coeff     BNC.tersoff

# Setup neighbor style
neighbor 1.0 nsq
neigh_modify once no every 1 delay 0 check yes

# Setup minimization style
min_style	     cg
min_modify	     dmax 0.01 line quadratic

# Setup output
thermo		500
thermo_style custom step temp pe press pxx pyy pzz pxy pxz pyz lx ly lz vol
thermo_modify norm no

# Output
dump            1 all xtc 100 traj.xtc
dump            2 all xyz 2000 relaxed.xyz
#dump            4 all atom 10 dump.atom

# Positive deformation

variable delta equal 1.0e-5*55.8128916161325
variable deltaxy equal 1.0e-5*xy
variable deltaxz equal 1.0e-5*xz
variable deltayz equal 1.0e-5*yz
change_box all x delta 0 0.000558128916161325 xy delta 0 xz delta 0 remap units box
  triclinic box = (-27.9064 -27.9064 -27.9064) to (27.907 27.9064 27.9064) with tilt (0 0 0)
  triclinic box = (-27.9064 -27.9064 -27.9064) to (27.907 27.9064 27.9064) with tilt (0 0 0)
  triclinic box = (-27.9064 -27.9064 -27.9064) to (27.907 27.9064 27.9064) with tilt (0 0 0)

# Relax atoms positions

minimize 0 1e-10 10000000 10000000
  1 neighbor list requests
  update every 1 steps, delay 0 steps, check yes
Step Temp PotEng Press Pxx Pyy Pzz Pxy Pxz Pyz Lx Ly Lz Volume
124824            0   -23764.699   -4.2985283   -8.1961871   -2.4355246   -2.2638731 -0.018602588 -0.039631653 -0.041699578     55.81345    55.812892    55.812892     173863.3
Loop time of 2.67806 on 16 procs (16 MPI x 1 OpenMP) for 1427 steps with 3072 atoms

Minimization stats:
  Stopping criterion = force tolerance
  Energy initial, next-to-last, final =
  Force two-norm initial, final = 0.0443109 9.89347e-11
  Force max component initial, final = 0.00184754 4.42122e-12
  Final line search alpha, max atom move = 1 4.42122e-12
  Iterations, force evaluations = 1427 2854

Pair  time (%) = 2.43293 (90.8467)
Neigh time (%) = 0 (0)
Comm  time (%) = 0.168295 (6.2842)
Outpt time (%) = 0.00407836 (0.152288)
Other time (%) = 0.0727592 (2.71686)

# Obtain new stress tensor

variable tmp equal pe
variable e1 equal -23764.6986535087
variable tmp equal press
variable p1 equal -1.04535178490523
variable tmp equal pxx
variable pxx1 equal -1.71401968979213
variable tmp equal pyy
variable pyy1 equal -0.711018103634144
variable tmp equal pzz
variable pzz1 equal -0.711017561289411
variable tmp equal pxy
variable pxy1 equal 4.90148825974291e-10
variable tmp equal pxz
variable pxz1 equal 4.69719819701843e-11
variable tmp equal pyz
variable pyz1 equal 3.68393258142184e-11

# Compute elastic constant from pressure tensor

variable C1pos equal 17.140196899573
variable C2pos equal 7.11018103738287
variable C3pos equal 7.1101756121096
variable C4pos equal -3.55953584394821e-08
variable C5pos equal -9.45116946890011e-08
variable C6pos equal -1.08463712609789e-07

# Combine positive and negative

variable C11 equal 0.5*(17.1338788519954+17.140196899573)
variable C21 equal 0.5*(7.10479333935495+7.11018103738287)
variable C31 equal 0.5*(7.10479875767929+7.1101756121096)
variable C41 equal 0.5*(3.12138456307114e-08+-3.55953584394821e-08)
variable C51 equal 0.5*(9.36844601093078e-08+-9.45116946890011e-08)
variable C61 equal 0.5*(1.10298856638476e-07+-1.08463712609789e-07)

# Delete dir to make sure it is not reused

variable dir delete

# uyy Perturbation

variable dir equal 2
include displace.mod
# NOTE: This script should not need to be
# modified. See in.elastic for more info.
#
# Find which reference length to use

variable len0 equal 55.8128916161328

# Reset box and simulation parameters

clear
box tilt large
read_restart restart.equil
  triclinic box = (-27.9064 -27.9064 -27.9064) to (27.9064 27.9064 27.9064) with tilt (0 0 0)
  3072 atoms
include potential.mod
# NOTE: This script can be modified for different pair styles
# See in.elastic for more info.

# Choose potential
pair_style     rebo
pair_coeff     * * CH.airebo  C
Reading potential file CH.airebo with DATE: 2011-10-25

#pair_style     lcbop
#pair_coeff     C.lcbop
#pair_style     tersoff
#pair_coeff     BNC.tersoff

# Setup neighbor style
neighbor 1.0 nsq
neigh_modify once no every 1 delay 0 check yes

# Setup minimization style
min_style	     cg
min_modify	     dmax 0.01 line quadratic

# Setup output
thermo		500
thermo_style custom step temp pe press pxx pyy pzz pxy pxz pyz lx ly lz vol
thermo_modify norm no

# Output
dump            1 all xtc 100 traj.xtc
dump            2 all xyz 2000 relaxed.xyz
#dump            4 all atom 10 dump.atom

# Negative deformation

variable delta equal -1.0e-5*55.8128916161328
variable deltaxy equal -1.0e-5*xy
variable deltaxz equal -1.0e-5*xz
variable deltayz equal -1.0e-5*yz
change_box all y delta 0 -0.000558128916161328 yz delta -0 remap units box
  triclinic box = (-27.9064 -27.9064 -27.9064) to (27.9064 27.9059 27.9064) with tilt (0 0 0)
  triclinic box = (-27.9064 -27.9064 -27.9064) to (27.9064 27.9059 27.9064) with tilt (0 0 0)

# Relax atoms positions

minimize 0 1e-10 10000000 10000000
  1 neighbor list requests
  update every 1 steps, delay 0 steps, check yes
Step Temp PotEng Press Pxx Pyy Pzz Pxy Pxz Pyz Lx Ly Lz Volume
124824            0   -23764.699    4.3053687    2.4006666    8.1615708    2.3538686 -0.018602109 -0.039635021 -0.041703474    55.812892    55.812333    55.812892    173859.82
Loop time of 2.5073 on 16 procs (16 MPI x 1 OpenMP) for 1321 steps with 3072 atoms

Minimization stats:
  Stopping criterion = force tolerance
  Energy initial, next-to-last, final =
  Force two-norm initial, final = 0.0442365 9.95703e-11
  Force max component initial, final = 0.00167665 4.68856e-12
  Final line search alpha, max atom move = 1 4.68856e-12
  Iterations, force evaluations = 1321 2642

Pair  time (%) = 2.25467 (89.9241)
Neigh time (%) = 0 (0)
Comm  time (%) = 0.179776 (7.1701)
Outpt time (%) = 0.00399399 (0.159294)
Other time (%) = 0.0688634 (2.74651)

# Obtain new stress tensor

variable tmp equal pxx
variable pxx1 equal 0.710479930123719
variable tmp equal pyy
variable pyy1 equal 1.71338791619912
variable tmp equal pzz
variable pzz1 equal 0.710479344472488
variable tmp equal pxy
variable pxy1 equal -1.64431416524772e-09
variable tmp equal pxz
variable pxz1 equal 1.91320733495061e-09
variable tmp equal pyz
variable pyz1 equal 1.83765696883106e-09

# Compute elastic constant from pressure tensor

variable C1neg equal 7.1047992995855
variable C2neg equal 17.1338791609498
variable C3neg equal 7.10479344550939
variable C4neg equal 5.36035348696505e-08
variable C5neg equal 1.13174048218805e-07
variable C6neg equal 8.71190826975688e-08

# Reset box and simulation parameters

clear
box tilt large
read_restart restart.equil
  triclinic box = (-27.9064 -27.9064 -27.9064) to (27.9064 27.9064 27.9064) with tilt (0 0 0)
  3072 atoms
include potential.mod
# NOTE: This script can be modified for different pair styles
# See in.elastic for more info.

# Choose potential
pair_style     rebo
pair_coeff     * * CH.airebo  C
Reading potential file CH.airebo with DATE: 2011-10-25

#pair_style     lcbop
#pair_coeff     C.lcbop
#pair_style     tersoff
#pair_coeff     BNC.tersoff

# Setup neighbor style
neighbor 1.0 nsq
neigh_modify once no every 1 delay 0 check yes

# Setup minimization style
min_style	     cg
min_modify	     dmax 0.01 line quadratic

# Setup output
thermo		500
thermo_style custom step temp pe press pxx pyy pzz pxy pxz pyz lx ly lz vol
thermo_modify norm no

# Output
dump            1 all xtc 100 traj.xtc
dump            2 all xyz 2000 relaxed.xyz
#dump            4 all atom 10 dump.atom

# Positive deformation

variable delta equal 1.0e-5*55.8128916161328
variable deltaxy equal 1.0e-5*xy
variable deltaxz equal 1.0e-5*xz
variable deltayz equal 1.0e-5*yz
change_box all y delta 0 0.000558128916161328 yz delta 0 remap units box
  triclinic box = (-27.9064 -27.9064 -27.9064) to (27.9064 27.907 27.9064) with tilt (0 0 0)
  triclinic box = (-27.9064 -27.9064 -27.9064) to (27.9064 27.907 27.9064) with tilt (0 0 0)

# Relax atoms positions

minimize 0 1e-10 10000000 10000000
  1 neighbor list requests
  update every 1 steps, delay 0 steps, check yes
Step Temp PotEng Press Pxx Pyy Pzz Pxy Pxz Pyz Lx Ly Lz Volume
124824            0   -23764.699   -4.2985183   -2.2170674   -8.4146141   -2.2638736 -0.018594204  -0.03963644 -0.041705416    55.812892     55.81345    55.812892     173863.3
Loop time of 2.49152 on 16 procs (16 MPI x 1 OpenMP) for 1324 steps with 3072 atoms

Minimization stats:
  Stopping criterion = force tolerance
  Energy initial, next-to-last, final =
  Force two-norm initial, final = 0.0451321 9.86788e-11
  Force max component initial, final = 0.00202713 5.53756e-12
  Final line search alpha, max atom move = 1 5.53756e-12
  Iterations, force evaluations = 1324 2648

Pair  time (%) = 2.25831 (90.6399)
Neigh time (%) = 0 (0)
Comm  time (%) = 0.166816 (6.69535)
Outpt time (%) = 0.00394538 (0.158352)
Other time (%) = 0.0624464 (2.50635)

# Obtain new stress tensor

variable tmp equal pe
variable e1 equal -23764.6986535087
variable tmp equal press
variable p1 equal -1.04535175373974
variable tmp equal pxx
variable pxx1 equal -0.711017508492437
variable tmp equal pyy
variable pyy1 equal -1.71401965900454
variable tmp equal pzz
variable pzz1 equal -0.711018093722253
variable tmp equal pxy
variable pxy1 equal -1.46447983306205e-09
variable tmp equal pxz
variable pxz1 equal 2.12392095300241e-09
variable tmp equal pyz
variable pyz1 equal 1.86673318693705e-09

# Compute elastic constant from pressure tensor

variable C1pos equal 7.11017508657606
variable C2pos equal 17.1401965910868
variable C3pos equal 7.11018093643802
variable C4pos equal -5.38942970507104e-08
variable C5pos equal -1.15281184399323e-07
variable C6pos equal -8.89174260194255e-08

# Combine positive and negative

variable C12 equal 0.5*(7.1047992995855+7.11017508657606)
variable C22 equal 0.5*(17.1338791609498+17.1401965910868)
variable C32 equal 0.5*(7.10479344550939+7.11018093643802)
variable C42 equal 0.5*(5.36035348696505e-08+-5.38942970507104e-08)
variable C52 equal 0.5*(1.13174048218805e-07+-1.15281184399323e-07)
variable C62 equal 0.5*(8.71190826975688e-08+-8.89174260194255e-08)

# Delete dir to make sure it is not reused

variable dir delete

# uzz Perturbation

variable dir equal 3
include displace.mod
# NOTE: This script should not need to be
# modified. See in.elastic for more info.
#
# Find which reference length to use

variable len0 equal 55.8128916161448

# Reset box and simulation parameters

clear
box tilt large
read_restart restart.equil
  triclinic box = (-27.9064 -27.9064 -27.9064) to (27.9064 27.9064 27.9064) with tilt (0 0 0)
  3072 atoms
include potential.mod
# NOTE: This script can be modified for different pair styles
# See in.elastic for more info.

# Choose potential
pair_style     rebo
pair_coeff     * * CH.airebo  C
Reading potential file CH.airebo with DATE: 2011-10-25

#pair_style     lcbop
#pair_coeff     C.lcbop
#pair_style     tersoff
#pair_coeff     BNC.tersoff

# Setup neighbor style
neighbor 1.0 nsq
neigh_modify once no every 1 delay 0 check yes

# Setup minimization style
min_style	     cg
min_modify	     dmax 0.01 line quadratic

# Setup output
thermo		500
thermo_style custom step temp pe press pxx pyy pzz pxy pxz pyz lx ly lz vol
thermo_modify norm no

# Output
dump            1 all xtc 100 traj.xtc
dump            2 all xyz 2000 relaxed.xyz
#dump            4 all atom 10 dump.atom

# Negative deformation

variable delta equal -1.0e-5*55.8128916161448
variable deltaxy equal -1.0e-5*xy
variable deltaxz equal -1.0e-5*xz
variable deltayz equal -1.0e-5*yz
change_box all z delta 0 -0.000558128916161448 remap units box
  triclinic box = (-27.9064 -27.9064 -27.9064) to (27.9064 27.9064 27.9059) with tilt (0 0 0)

# Relax atoms positions

minimize 0 1e-10 10000000 10000000
  1 neighbor list requests
  update every 1 steps, delay 0 steps, check yes
Step Temp PotEng Press Pxx Pyy Pzz Pxy Pxz Pyz Lx Ly Lz Volume
124824            0   -23764.699     4.305376    2.4006707    2.1822065    8.3332507 -0.018602236 -0.039636954  -0.04170856    55.812892    55.812892    55.812333    173859.82
Loop time of 2.47832 on 16 procs (16 MPI x 1 OpenMP) for 1320 steps with 3072 atoms

Minimization stats:
  Stopping criterion = force tolerance
  Energy initial, next-to-last, final =
  Force two-norm initial, final = 0.0447606 9.96926e-11
  Force max component initial, final = 0.00181477 4.70875e-12
  Final line search alpha, max atom move = 1 4.70875e-12
  Iterations, force evaluations = 1320 2640

Pair  time (%) = 2.24605 (90.6281)
Neigh time (%) = 0 (0)
Comm  time (%) = 0.166475 (6.71727)
Outpt time (%) = 0.00395958 (0.159769)
Other time (%) = 0.061831 (2.49488)

# Obtain new stress tensor

variable tmp equal pxx
variable pxx1 equal 0.710479367398057
variable tmp equal pyy
variable pyy1 equal 0.710479930348197
variable tmp equal pzz
variable pzz1 equal 1.71338789525815
variable tmp equal pxy
variable pxy1 equal -1.84459363913996e-09
variable tmp equal pxz
variable pxz1 equal 2.00279883135325e-09
variable tmp equal pyz
variable pyz1 equal 1.59555694397323e-09

# Compute elastic constant from pressure tensor

variable C1neg equal 7.10479367232888
variable C2neg equal 7.10479930244054
variable C3neg equal 17.133878953366
variable C4neg equal 5.11825346210722e-08
variable C5neg equal 1.14069963182832e-07
variable C6neg equal 8.51162879586464e-08

# Reset box and simulation parameters

clear
box tilt large
read_restart restart.equil
  triclinic box = (-27.9064 -27.9064 -27.9064) to (27.9064 27.9064 27.9064) with tilt (0 0 0)
  3072 atoms
include potential.mod
# NOTE: This script can be modified for different pair styles
# See in.elastic for more info.

# Choose potential
pair_style     rebo
pair_coeff     * * CH.airebo  C
Reading potential file CH.airebo with DATE: 2011-10-25

#pair_style     lcbop
#pair_coeff     C.lcbop
#pair_style     tersoff
#pair_coeff     BNC.tersoff

# Setup neighbor style
neighbor 1.0 nsq
neigh_modify once no every 1 delay 0 check yes

# Setup minimization style
min_style	     cg
min_modify	     dmax 0.01 line quadratic

# Setup output
thermo		500
thermo_style custom step temp pe press pxx pyy pzz pxy pxz pyz lx ly lz vol
thermo_modify norm no

# Output
dump            1 all xtc 100 traj.xtc
dump            2 all xyz 2000 relaxed.xyz
#dump            4 all atom 10 dump.atom

# Positive deformation

variable delta equal 1.0e-5*55.8128916161448
variable deltaxy equal 1.0e-5*xy
variable deltaxz equal 1.0e-5*xz
variable deltayz equal 1.0e-5*yz
change_box all z delta 0 0.000558128916161448 remap units box
  triclinic box = (-27.9064 -27.9064 -27.9064) to (27.9064 27.9064 27.907) with tilt (0 0 0)

# Relax atoms positions

minimize 0 1e-10 10000000 10000000
  1 neighbor list requests
  update every 1 steps, delay 0 steps, check yes
Step Temp PotEng Press Pxx Pyy Pzz Pxy Pxz Pyz Lx Ly Lz Volume
124824            0   -23764.699   -4.2985256   -2.2170653   -2.4355323   -8.2429792 -0.018594077 -0.039634506  -0.04170033    55.812892    55.812892     55.81345     173863.3
Loop time of 2.48812 on 16 procs (16 MPI x 1 OpenMP) for 1323 steps with 3072 atoms

Minimization stats:
  Stopping criterion = force tolerance
  Energy initial, next-to-last, final =
  Force two-norm initial, final = 0.0446124 9.87672e-11
  Force max component initial, final = 0.00179797 6.67461e-12
  Final line search alpha, max atom move = 1 6.67461e-12
  Iterations, force evaluations = 1323 2646

Pair  time (%) = 2.25273 (90.5394)
Neigh time (%) = 0 (0)
Comm  time (%) = 0.16428 (6.60255)
Outpt time (%) = 0.00407861 (0.163923)
Other time (%) = 0.067032 (2.69408)

# Obtain new stress tensor

variable tmp equal pe
variable e1 equal -23764.6986535087
variable tmp equal press
variable p1 equal -1.04535175281381
variable tmp equal pxx
variable pxx1 equal -0.71101807095749
variable tmp equal pyy
variable pyy1 equal -0.711017507799946
variable tmp equal pzz
variable pzz1 equal -1.71401967968398
variable tmp equal pxy
variable pxy1 equal -1.57651607198849e-09
variable tmp equal pxz
variable pxz1 equal 1.69617226477698e-09
variable tmp equal pyz
variable pyz1 equal 1.76169077247367e-09

# Compute elastic constant from pressure tensor

variable C1pos equal 7.11018071122659
variable C2pos equal 7.11017507904089
variable C3pos equal 17.1401967960553
variable C4pos equal -5.28438729060766e-08
variable C5pos equal -1.11003697517069e-07
variable C6pos equal -8.77970636301611e-08

# Combine positive and negative

variable C13 equal 0.5*(7.10479367232888+7.11018071122659)
variable C23 equal 0.5*(7.10479930244054+7.11017507904089)
variable C33 equal 0.5*(17.133878953366+17.1401967960553)
variable C43 equal 0.5*(5.11825346210722e-08+-5.28438729060766e-08)
variable C53 equal 0.5*(1.14069963182832e-07+-1.11003697517069e-07)
variable C63 equal 0.5*(8.51162879586464e-08+-8.77970636301611e-08)

# Delete dir to make sure it is not reused

variable dir delete

# uyz Perturbation

variable dir equal 4
include displace.mod
# NOTE: This script should not need to be
# modified. See in.elastic for more info.
#
# Find which reference length to use

variable len0 equal 55.8128916161448

# Reset box and simulation parameters

clear
box tilt large
read_restart restart.equil
  triclinic box = (-27.9064 -27.9064 -27.9064) to (27.9064 27.9064 27.9064) with tilt (0 0 0)
  3072 atoms
include potential.mod
# NOTE: This script can be modified for different pair styles
# See in.elastic for more info.

# Choose potential
pair_style     rebo
pair_coeff     * * CH.airebo  C
Reading potential file CH.airebo with DATE: 2011-10-25

#pair_style     lcbop
#pair_coeff     C.lcbop
#pair_style     tersoff
#pair_coeff     BNC.tersoff

# Setup neighbor style
neighbor 1.0 nsq
neigh_modify once no every 1 delay 0 check yes

# Setup minimization style
min_style	     cg
min_modify	     dmax 0.01 line quadratic

# Setup output
thermo		500
thermo_style custom step temp pe press pxx pyy pzz pxy pxz pyz lx ly lz vol
thermo_modify norm no

# Output
dump            1 all xtc 100 traj.xtc
dump            2 all xyz 2000 relaxed.xyz
#dump            4 all atom 10 dump.atom

# Negative deformation

variable delta equal -1.0e-5*55.8128916161448
variable deltaxy equal -1.0e-5*xy
variable deltaxz equal -1.0e-5*xz
variable deltayz equal -1.0e-5*yz
change_box all yz delta -0.000558128916161448 remap units box
  triclinic box = (-27.9064 -27.9064 -27.9064) to (27.9064 27.9064 27.9064) with tilt (0 0 -0.000558129)

# Relax atoms positions

minimize 0 1e-10 10000000 10000000
  1 neighbor list requests
  update every 1 steps, delay 0 steps, check yes
Step Temp PotEng Press Pxx Pyy Pzz Pxy Pxz Pyz Lx Ly Lz Volume
124824            0   -23764.699 0.0033179928  0.091717382  -0.12673619  0.044972781 -0.018595521 -0.039637016    4.4406236    55.812892    55.812892    55.812892    173861.56
Loop time of 2.42564 on 16 procs (16 MPI x 1 OpenMP) for 1283 steps with 3072 atoms

Minimization stats:
  Stopping criterion = force tolerance
  Energy initial, next-to-last, final =
  Force two-norm initial, final = 0.0442113 9.65239e-11
  Force max component initial, final = 0.00191588 5.38208e-12
  Final line search alpha, max atom move = 1 5.38208e-12
  Iterations, force evaluations = 1283 2566

Pair  time (%) = 2.18409 (90.0419)
Neigh time (%) = 0 (0)
Comm  time (%) = 0.173455 (7.1509)
Outpt time (%) = 0.00391561 (0.161426)
Other time (%) = 0.0641767 (2.64577)

# Obtain new stress tensor

variable tmp equal pxx
variable pxx1 equal -6.02165487542768e-05
variable tmp equal pyy
variable pyy1 equal -0.000104138437403829
variable tmp equal pzz
variable pzz1 equal -7.0759634190852e-05
variable tmp equal pxy
variable pxy1 equal 1.26626729412102e-10
variable tmp equal pxz
variable pxz1 equal 5.65731984807993e-11
variable tmp equal pyz
variable pyz1 equal 2.12771913720811

# Compute elastic constant from pressure tensor

variable C1neg equal -0.000602167139231346
variable C2neg equal -0.00104138541546968
variable C3neg equal -0.000707595557397369
variable C4neg equal 21.2771914073081
variable C5neg equal 9.46077068541073e-08
variable C6neg equal 1.04828491644167e-07

# Reset box and simulation parameters

clear
box tilt large
read_restart restart.equil
  triclinic box = (-27.9064 -27.9064 -27.9064) to (27.9064 27.9064 27.9064) with tilt (0 0 0)
  3072 atoms
include potential.mod
# NOTE: This script can be modified for different pair styles
# See in.elastic for more info.

# Choose potential
pair_style     rebo
pair_coeff     * * CH.airebo  C
Reading potential file CH.airebo with DATE: 2011-10-25

#pair_style     lcbop
#pair_coeff     C.lcbop
#pair_style     tersoff
#pair_coeff     BNC.tersoff

# Setup neighbor style
neighbor 1.0 nsq
neigh_modify once no every 1 delay 0 check yes

# Setup minimization style
min_style	     cg
min_modify	     dmax 0.01 line quadratic

# Setup output
thermo		500
thermo_style custom step temp pe press pxx pyy pzz pxy pxz pyz lx ly lz vol
thermo_modify norm no

# Output
dump            1 all xtc 100 traj.xtc
dump            2 all xyz 2000 relaxed.xyz
#dump            4 all atom 10 dump.atom

# Positive deformation

variable delta equal 1.0e-5*55.8128916161448
variable deltaxy equal 1.0e-5*xy
variable deltaxz equal 1.0e-5*xz
variable deltayz equal 1.0e-5*yz
change_box all yz delta 0.000558128916161448 remap units box
  triclinic box = (-27.9064 -27.9064 -27.9064) to (27.9064 27.9064 27.9064) with tilt (0 0 0.000558129)

# Relax atoms positions

minimize 0 1e-10 10000000 10000000
  1 neighbor list requests
  update every 1 steps, delay 0 steps, check yes
Step Temp PotEng Press Pxx Pyy Pzz Pxy Pxz Pyz Lx Ly Lz Volume
124824            0   -23764.699 0.0033224999  0.091726283  -0.12673979  0.044981012 -0.018600792 -0.039634444   -4.5240325    55.812892    55.812892    55.812892    173861.56
Loop time of 2.4131 on 16 procs (16 MPI x 1 OpenMP) for 1283 steps with 3072 atoms

Minimization stats:
  Stopping criterion = force tolerance
  Energy initial, next-to-last, final =
  Force two-norm initial, final = 0.0446669 9.98592e-11
  Force max component initial, final = 0.00165701 8.40746e-12
  Final line search alpha, max atom move = 1 8.40746e-12
  Iterations, force evaluations = 1283 2566

Pair  time (%) = 2.18319 (90.4726)
Neigh time (%) = 0 (0)
Comm  time (%) = 0.159619 (6.61468)
Outpt time (%) = 0.00396124 (0.164156)
Other time (%) = 0.0663253 (2.74856)

# Obtain new stress tensor

variable tmp equal pe
variable e1 equal -23764.6986532842
variable tmp equal press
variable p1 equal -7.83724618998696e-05
variable tmp equal pxx
variable pxx1 equal -6.02174931960263e-05
variable tmp equal pyy
variable pyy1 equal -0.000104139265703552
variable tmp equal pzz
variable pzz1 equal -7.0760626800031e-05
variable tmp equal pxy
variable pxy1 equal -9.05482197327956e-11
variable tmp equal pxz
variable pxz1 equal -2.78487135172048e-10
variable tmp equal pyz
variable pyz1 equal -2.12771913735265

# Compute elastic constant from pressure tensor

variable C1pos equal 0.000602176583648841
variable C2pos equal 0.00104139369846691
variable C3pos equal 0.000707605483489159
variable C4pos equal 21.2771913382995
variable C5pos equal -9.12571035175788e-08
variable C6pos equal -1.02656742152718e-07

# Combine positive and negative

variable C14 equal 0.5*(-0.000602167139231346+0.000602176583648841)
variable C24 equal 0.5*(-0.00104138541546968+0.00104139369846691)
variable C34 equal 0.5*(-0.000707595557397369+0.000707605483489159)
variable C44 equal 0.5*(21.2771914073081+21.2771913382995)
variable C54 equal 0.5*(9.46077068541073e-08+-9.12571035175788e-08)
variable C64 equal 0.5*(1.04828491644167e-07+-1.02656742152718e-07)

# Delete dir to make sure it is not reused

variable dir delete

# uxz Perturbation

variable dir equal 5
include displace.mod
# NOTE: This script should not need to be
# modified. See in.elastic for more info.
#
# Find which reference length to use

variable len0 equal 55.8128916161448

# Reset box and simulation parameters

clear
box tilt large
read_restart restart.equil
  triclinic box = (-27.9064 -27.9064 -27.9064) to (27.9064 27.9064 27.9064) with tilt (0 0 0)
  3072 atoms
include potential.mod
# NOTE: This script can be modified for different pair styles
# See in.elastic for more info.

# Choose potential
pair_style     rebo
pair_coeff     * * CH.airebo  C
Reading potential file CH.airebo with DATE: 2011-10-25

#pair_style     lcbop
#pair_coeff     C.lcbop
#pair_style     tersoff
#pair_coeff     BNC.tersoff

# Setup neighbor style
neighbor 1.0 nsq
neigh_modify once no every 1 delay 0 check yes

# Setup minimization style
min_style	     cg
min_modify	     dmax 0.01 line quadratic

# Setup output
thermo		500
thermo_style custom step temp pe press pxx pyy pzz pxy pxz pyz lx ly lz vol
thermo_modify norm no

# Output
dump            1 all xtc 100 traj.xtc
dump            2 all xyz 2000 relaxed.xyz
#dump            4 all atom 10 dump.atom

# Negative deformation

variable delta equal -1.0e-5*55.8128916161448
variable deltaxy equal -1.0e-5*xy
variable deltaxz equal -1.0e-5*xz
variable deltayz equal -1.0e-5*yz
change_box all xz delta -0.000558128916161448 remap units box
  triclinic box = (-27.9064 -27.9064 -27.9064) to (27.9064 27.9064 27.9064) with tilt (0 -0.000558129 0)

# Relax atoms positions

minimize 0 1e-10 10000000 10000000
  1 neighbor list requests
  update every 1 steps, delay 0 steps, check yes
Step Temp PotEng Press Pxx Pyy Pzz Pxy Pxz Pyz Lx Ly Lz Volume
124824            0   -23764.699 0.0033191122  0.091719048   -0.1267396  0.044977893 -0.018601565    4.4426891 -0.041705731    55.812892    55.812892    55.812892    173861.56
Loop time of 2.41829 on 16 procs (16 MPI x 1 OpenMP) for 1284 steps with 3072 atoms

Minimization stats:
  Stopping criterion = force tolerance
  Energy initial, next-to-last, final =
  Force two-norm initial, final = 0.0443326 9.55482e-11
  Force max component initial, final = 0.00165632 5.5838e-12
  Final line search alpha, max atom move = 1 5.5838e-12
  Iterations, force evaluations = 1284 2568

Pair  time (%) = 2.18764 (90.4623)
Neigh time (%) = 0 (0)
Comm  time (%) = 0.164317 (6.79476)
Outpt time (%) = 0.00402473 (0.166429)
Other time (%) = 0.0623067 (2.57648)

# Obtain new stress tensor

variable tmp equal pxx
variable pxx1 equal -0.000108273345929364
variable tmp equal pyy
variable pyy1 equal -6.02194420903314e-05
variable tmp equal pzz
variable pzz1 equal -6.6622882411965e-05
variable tmp equal pxy
variable pxy1 equal -2.17346829522226e-11
variable tmp equal pxz
variable pxz1 equal 2.12771913739542
variable tmp equal pyz
variable pyz1 equal 1.00484542498376e-10

# Compute elastic constant from pressure tensor

variable C1neg equal -0.00108273511098222
variable C2neg equal -0.000602195462334705
variable C3neg equal -0.000666228039608499
variable C4neg equal 3.62318106063237e-08
variable C5neg equal 21.2771914679962
variable C6neg equal 1.03344877520524e-07

# Reset box and simulation parameters

clear
box tilt large
read_restart restart.equil
  triclinic box = (-27.9064 -27.9064 -27.9064) to (27.9064 27.9064 27.9064) with tilt (0 0 0)
  3072 atoms
include potential.mod
# NOTE: This script can be modified for different pair styles
# See in.elastic for more info.

# Choose potential
pair_style     rebo
pair_coeff     * * CH.airebo  C
Reading potential file CH.airebo with DATE: 2011-10-25

#pair_style     lcbop
#pair_coeff     C.lcbop
#pair_style     tersoff
#pair_coeff     BNC.tersoff

# Setup neighbor style
neighbor 1.0 nsq
neigh_modify once no every 1 delay 0 check yes

# Setup minimization style
min_style	     cg
min_modify	     dmax 0.01 line quadratic

# Setup output
thermo		500
thermo_style custom step temp pe press pxx pyy pzz pxy pxz pyz lx ly lz vol
thermo_modify norm no

# Output
dump            1 all xtc 100 traj.xtc
dump            2 all xyz 2000 relaxed.xyz
#dump            4 all atom 10 dump.atom

# Positive deformation

variable delta equal 1.0e-5*55.8128916161448
variable deltaxy equal 1.0e-5*xy
variable deltaxz equal 1.0e-5*xz
variable deltayz equal 1.0e-5*yz
change_box all xz delta 0.000558128916161448 remap units box
  triclinic box = (-27.9064 -27.9064 -27.9064) to (27.9064 27.9064 27.9064) with tilt (0 0.000558129 0)

# Relax atoms positions

minimize 0 1e-10 10000000 10000000
  1 neighbor list requests
  update every 1 steps, delay 0 steps, check yes
Step Temp PotEng Press Pxx Pyy Pzz Pxy Pxz Pyz Lx Ly Lz Volume
124824            0   -23764.699 0.0033213805  0.091725618  -0.12674182  0.044980341 -0.018594747   -4.5219606 -0.041703159    55.812892    55.812892    55.812892    173861.56
Loop time of 2.40825 on 16 procs (16 MPI x 1 OpenMP) for 1283 steps with 3072 atoms

Minimization stats:
  Stopping criterion = force tolerance
  Energy initial, next-to-last, final =
  Force two-norm initial, final = 0.0445464 9.77901e-11
  Force max component initial, final = 0.00185291 5.67434e-12
  Final line search alpha, max atom move = 1 5.67434e-12
  Iterations, force evaluations = 1283 2566

Pair  time (%) = 2.1829 (90.6428)
Neigh time (%) = 0 (0)
Comm  time (%) = 0.155959 (6.47605)
Outpt time (%) = 0.00388551 (0.161342)
Other time (%) = 0.0654996 (2.7198)

# Obtain new stress tensor

variable tmp equal pe
variable e1 equal -23764.6986532842
variable tmp equal press
variable p1 equal -7.83723348475317e-05
variable tmp equal pxx
variable pxx1 equal -0.000108273506269202
variable tmp equal pyy
variable pyy1 equal -6.02200304777869e-05
variable tmp equal pzz
variable pzz1 equal -6.66234677956063e-05
variable tmp equal pxy
variable pxy1 equal 2.73735870455887e-10
variable tmp equal pxz
variable pxz1 equal -2.12771913716165
variable tmp equal pyz
variable pyz1 equal -5.51736011225504e-11

# Compute elastic constant from pressure tensor

variable C1pos equal 0.0010827367143806
variable C2pos equal 0.00060220134620926
variable C3pos equal 0.000666233893444912
variable C4pos equal -3.46752291701144e-08
variable C5pos equal 21.2771912775745
variable C6pos equal -1.06299583054605e-07

# Combine positive and negative

variable C15 equal 0.5*(-0.00108273511098222+0.0010827367143806)
variable C25 equal 0.5*(-0.000602195462334705+0.00060220134620926)
variable C35 equal 0.5*(-0.000666228039608499+0.000666233893444912)
variable C45 equal 0.5*(3.62318106063237e-08+-3.46752291701144e-08)
variable C55 equal 0.5*(21.2771914679962+21.2771912775745)
variable C65 equal 0.5*(1.03344877520524e-07+-1.06299583054605e-07)

# Delete dir to make sure it is not reused

variable dir delete

# uxy Perturbation

variable dir equal 6
include displace.mod
# NOTE: This script should not need to be
# modified. See in.elastic for more info.
#
# Find which reference length to use

variable len0 equal 55.8128916161328

# Reset box and simulation parameters

clear
box tilt large
read_restart restart.equil
  triclinic box = (-27.9064 -27.9064 -27.9064) to (27.9064 27.9064 27.9064) with tilt (0 0 0)
  3072 atoms
include potential.mod
# NOTE: This script can be modified for different pair styles
# See in.elastic for more info.

# Choose potential
pair_style     rebo
pair_coeff     * * CH.airebo  C
Reading potential file CH.airebo with DATE: 2011-10-25

#pair_style     lcbop
#pair_coeff     C.lcbop
#pair_style     tersoff
#pair_coeff     BNC.tersoff

# Setup neighbor style
neighbor 1.0 nsq
neigh_modify once no every 1 delay 0 check yes

# Setup minimization style
min_style	     cg
min_modify	     dmax 0.01 line quadratic

# Setup output
thermo		500
thermo_style custom step temp pe press pxx pyy pzz pxy pxz pyz lx ly lz vol
thermo_modify norm no

# Output
dump            1 all xtc 100 traj.xtc
dump            2 all xyz 2000 relaxed.xyz
#dump            4 all atom 10 dump.atom

# Negative deformation

variable delta equal -1.0e-5*55.8128916161328
variable deltaxy equal -1.0e-5*xy
variable deltaxz equal -1.0e-5*xz
variable deltayz equal -1.0e-5*yz
change_box all xy delta -0.000558128916161328 remap units box
  triclinic box = (-27.9064 -27.9064 -27.9064) to (27.9064 27.9064 27.9064) with tilt (-0.000558129 0 0)

# Relax atoms positions

minimize 0 1e-10 10000000 10000000
  1 neighbor list requests
  update every 1 steps, delay 0 steps, check yes
Step Temp PotEng Press Pxx Pyy Pzz Pxy Pxz Pyz Lx Ly Lz Volume
124824            0   -23764.699 0.0033192324  0.091729357  -0.12668441  0.044912752     4.463728 -0.039639139 -0.041702206    55.812892    55.812892    55.812892    173861.56
Loop time of 2.41782 on 16 procs (16 MPI x 1 OpenMP) for 1283 steps with 3072 atoms

Minimization stats:
  Stopping criterion = force tolerance
  Energy initial, next-to-last, final =
  Force two-norm initial, final = 0.0443285 9.85745e-11
  Force max component initial, final = 0.00184821 5.86733e-12
  Final line search alpha, max atom move = 1 5.86733e-12
  Iterations, force evaluations = 1283 2566

Pair  time (%) = 2.18386 (90.3232)
Neigh time (%) = 0 (0)
Comm  time (%) = 0.167773 (6.93901)
Outpt time (%) = 0.00400932 (0.165823)
Other time (%) = 0.062186 (2.57198)

# Obtain new stress tensor

variable tmp equal pxx
variable pxx1 equal -0.00010413765243433
variable tmp equal pyy
variable pyy1 equal -7.07372829238776e-05
variable tmp equal pzz
variable pzz1 equal -6.02447708738213e-05
variable tmp equal pxy
variable pxy1 equal 2.12771913712
variable tmp equal pxz
variable pxz1 equal -3.60633678365414e-10
variable tmp equal pyz
variable pyz1 equal -1.01401237844129e-10

# Compute elastic constant from pressure tensor

variable C1neg equal -0.00104137817603188
variable C2neg equal -0.000707373870670167
variable C3neg equal -0.000602446924227062
variable C4neg equal 3.42129528028986e-08
variable C5neg equal 9.04356380856452e-08
variable C6neg equal 21.2771914747622

# Reset box and simulation parameters

clear
box tilt large
read_restart restart.equil
  triclinic box = (-27.9064 -27.9064 -27.9064) to (27.9064 27.9064 27.9064) with tilt (0 0 0)
  3072 atoms
include potential.mod
# NOTE: This script can be modified for different pair styles
# See in.elastic for more info.

# Choose potential
pair_style     rebo
pair_coeff     * * CH.airebo  C
Reading potential file CH.airebo with DATE: 2011-10-25

#pair_style     lcbop
#pair_coeff     C.lcbop
#pair_style     tersoff
#pair_coeff     BNC.tersoff

# Setup neighbor style
neighbor 1.0 nsq
neigh_modify once no every 1 delay 0 check yes

# Setup minimization style
min_style	     cg
min_modify	     dmax 0.01 line quadratic

# Setup output
thermo		500
thermo_style custom step temp pe press pxx pyy pzz pxy pxz pyz lx ly lz vol
thermo_modify norm no

# Output
dump            1 all xtc 100 traj.xtc
dump            2 all xyz 2000 relaxed.xyz
#dump            4 all atom 10 dump.atom

# Positive deformation

variable delta equal 1.0e-5*55.8128916161328
variable deltaxy equal 1.0e-5*xy
variable deltaxz equal 1.0e-5*xz
variable deltayz equal 1.0e-5*yz
change_box all xy delta 0.000558128916161328 remap units box
  triclinic box = (-27.9064 -27.9064 -27.9064) to (27.9064 27.9064 27.9064) with tilt (0.000558129 0 0)

# Relax atoms positions

minimize 0 1e-10 10000000 10000000
  1 neighbor list requests
  update every 1 steps, delay 0 steps, check yes
Step Temp PotEng Press Pxx Pyy Pzz Pxy Pxz Pyz Lx Ly Lz Volume
124824            0   -23764.699 0.0033212603   0.09171975  -0.12667651  0.044920539   -4.5009243 -0.039632321 -0.041706684    55.812892    55.812892    55.812892    173861.56
Loop time of 2.41356 on 16 procs (16 MPI x 1 OpenMP) for 1284 steps with 3072 atoms

Minimization stats:
  Stopping criterion = force tolerance
  Energy initial, next-to-last, final =
  Force two-norm initial, final = 0.0445506 9.72486e-11
  Force max component initial, final = 0.0016636 7.4719e-12
  Final line search alpha, max atom move = 1 7.4719e-12
  Iterations, force evaluations = 1284 2568

Pair  time (%) = 2.18399 (90.4882)
Neigh time (%) = 0 (0)
Comm  time (%) = 0.159478 (6.60758)
Outpt time (%) = 0.00390446 (0.161772)
Other time (%) = 0.0661917 (2.74249)

# Obtain new stress tensor

variable tmp equal pe
variable e1 equal -23764.6986532842
variable tmp equal press
variable p1 equal -7.83725093524951e-05
variable tmp equal pxx
variable pxx1 equal -0.000104137220130627
variable tmp equal pyy
variable pyy1 equal -7.07366155369268e-05
variable tmp equal pzz
variable pzz1 equal -6.02436923899318e-05
variable tmp equal pxy
variable pxy1 equal -2.1277191373838
variable tmp equal pxz
variable pxz1 equal -1.05747355956587e-11
variable tmp equal pyz
variable pyz1 equal 2.5771416385488e-10

# Compute elastic constant from pressure tensor

variable C1pos equal 0.00104137385299485
variable C2pos equal 0.000707367196800659
variable C3pos equal 0.000602436139388167
variable C4pos equal -3.78041068198887e-08
variable C5pos equal -9.39362275133427e-08
variable C6pos equal 21.2771912702758

# Combine positive and negative

variable C16 equal 0.5*(-0.00104137817603188+0.00104137385299485)
variable C26 equal 0.5*(-0.000707373870670167+0.000707367196800659)
variable C36 equal 0.5*(-0.000602446924227062+0.000602436139388167)
variable C46 equal 0.5*(3.42129528028986e-08+-3.78041068198887e-08)
variable C56 equal 0.5*(9.04356380856452e-08+-9.39362275133427e-08)
variable C66 equal 0.5*(21.2771914747622+21.2771912702758)

# Delete dir to make sure it is not reused

variable dir delete

# Output final values

variable C11all equal 17.1370378757842
variable C22all equal 17.1370378760183
variable C33all equal 17.1370378747106

variable C12all equal 0.5*(7.10748719308078+7.10748718836891)
variable C13all equal 0.5*(7.10748719177773+7.10748718489445)
variable C23all equal 0.5*(7.10748719074071+7.10748719097371)

variable C44all equal 21.2771913728038
variable C55all equal 21.2771913727853
variable C66all equal 21.277191372519

variable C14all equal 0.5*(4.72220874751274e-09+-2.19075640438535e-09)
variable C15all equal 0.5*(8.0169918999836e-10+-4.13617289846654e-10)
variable C16all equal 0.5*(-2.16151851495719e-09+9.17572014343502e-10)

variable C24all equal 0.5*(4.1414986149714e-09+-1.4538109052995e-10)
variable C25all equal 0.5*(2.9419372775028e-09+-1.053568090259e-09)
variable C26all equal 0.5*(-3.336934754016e-09+-8.99171660928346e-10)

variable C34all equal 0.5*(4.96304589499242e-09+-8.30669142502202e-10)
variable C35all equal 0.5*(2.92691820650073e-09+1.5331328328815e-09)
variable C36all equal 0.5*(-5.39241944754734e-09+-1.34038783575735e-09)

variable C45all equal 0.5*(7.78290718104651e-10+1.67530166826425e-09)
variable C46all equal 0.5*(-1.79557700849505e-09+1.0858747457245e-09)
variable C56all equal 0.5*(-1.75029471384875e-09+-1.4773527670405e-09)

# Average moduli for cubic crystals

variable C11cubic equal (17.1370378757842+17.1370378760183+17.1370378747106)/3.0
variable C12cubic equal (7.10748719072484+7.10748718833609+7.10748719085721)/3.0
variable C44cubic equal (21.2771913728038+21.2771913727853+21.277191372519)/3.0

variable bulkmodulus equal (17.1370378755044+2*7.10748718997271)/3.0
variable shearmodulus1 equal 21.2771913727027
variable shearmodulus2 equal (17.1370378755044-7.10748718997271)/2.0
variable poissonratio equal 1.0/(1.0+17.1370378755044/7.10748718997271)

# For Stillinger-Weber silicon, the analytical results
# are known to be (E. R. Cowley, 1988):
#               C11 = 151.4 GPa
#               C12 = 76.4 GPa
#               C44 = 56.4 GPa

print "========================================="
=========================================
print "Components of the Elastic Constant Tensor"
Components of the Elastic Constant Tensor
print "========================================="
=========================================

Elastic Constant C11all = 17.1370378757842 GPa
Elastic Constant C22all = 17.1370378760183 GPa
Elastic Constant C33all = 17.1370378747106 GPa

Elastic Constant C12all = 7.10748719072484 GPa
Elastic Constant C13all = 7.10748718833609 GPa
Elastic Constant C23all = 7.10748719085721 GPa

Elastic Constant C44all = 21.2771913728038 GPa
Elastic Constant C55all = 21.2771913727853 GPa
Elastic Constant C66all = 21.277191372519 GPa

Elastic Constant C14all = 1.2657261715637e-09 GPa
Elastic Constant C15all = 1.94040950075853e-10 GPa
Elastic Constant C16all = -6.21973250306844e-10 GPa

Elastic Constant C24all = 1.99805876222073e-09 GPa
Elastic Constant C25all = 9.441845936219e-10 GPa
Elastic Constant C26all = -2.11805320747217e-09 GPa

Elastic Constant C34all = 2.06618837624511e-09 GPa
Elastic Constant C35all = 2.23002551969111e-09 GPa
Elastic Constant C36all = -3.36640364165234e-09 GPa

Elastic Constant C45all = 1.22679619318445e-09 GPa
Elastic Constant C46all = -3.54851131385275e-10 GPa
Elastic Constant C56all = -1.61382374044463e-09 GPa

print "========================================="
=========================================
print "Average properties for a cubic crystal"
Average properties for a cubic crystal
print "========================================="
=========================================

Bulk Modulus = 10.4506707518166 GPa
Shear Modulus 1 = 21.2771913727027 GPa
Shear Modulus 2 = 5.01477534276585 GPa
Poisson Ratio = 0.293158441783353
Deformation size: 1.0e-5

print "Lattice_type	lattice_constant	bulk_modulus	poisson	     c11	     c12         c44	" file elastic_constants.out
Lattice_type	lattice_constant	bulk_modulus	poisson	     c11	     c12         c44
sc    10.0    10.4506707518166     0.293158441783353     17.1370378757842     7.10748719072484     21.2771913728038
