read_data       P8-15_D3_5.xyz
  orthogonal box = (-58.1592 -58.1592 -58.1592) to (58.1592 58.1592 58.1592)
  reading atoms ...
  12288 atoms
change_box 	all triclinic
  triclinic box = (-58.1592 -58.1592 -58.1592) to (58.1592 58.1592 58.1592) with tilt (0 0 0)

include potential.mod
# NOTE: This script can be modified for different pair styles
# See in.elastic for more info.

# Choose potential
pair_style     rebo
pair_coeff     * * CH.airebo  C
Reading potential file CH.airebo with DATE: 2011-10-25

#pair_style     lcbop
#pair_coeff     C.lcbop
#pair_style     tersoff
#pair_coeff     BNC.tersoff

# Setup neighbor style
neighbor 1.0 nsq
neigh_modify once no every 1 delay 0 check yes

# Setup minimization style
min_style	     cg
min_modify	     dmax 0.01 line quadratic

# Setup output
thermo		500
thermo_style custom step temp pe press pxx pyy pzz pxy pxz pyz lx ly lz vol
thermo_modify norm no

# Output
dump            1 all xtc 100 traj.xtc
dump            2 all xyz 2000 relaxed.xyz
#dump            4 all atom 10 dump.atom

# Compute initial state
fix 3 all box/relax  aniso 0.0
minimize 0 1e-10 10000000 10000000
  1 neighbor list requests
  update every 1 steps, delay 0 steps, check yes
Step Temp PotEng Press Pxx Pyy Pzz Pxy Pxz Pyz Lx Ly Lz Volume
0            0   -83248.124    19535.211    19535.212    19535.205    19535.216 -0.0011043175 0.00084259205 0.00011116673    116.31838    116.31838    116.31838    1573783.7
Averages over the last 5032 of 10064 rows, steps 2516000 to 5031080:
Temp PotEng Press Pxx Pyy Pzz Pxy Pxz Pyz Lx Ly Lz Volume
0 -95118.1 6.18115e-12 1.12523e-11 1.86456e-11 -1.13544e-11 5.03761e-09 4.71746e-10 1.04146e-08 110.047 110.047 110.047 1.33271e+06
Loop time of 36523.6 on 16 procs (16 MPI x 1 OpenMP) for 5031080 steps with 12288 atoms

Minimization stats:
  Stopping criterion = max force evaluations
  Energy initial, next-to-last, final =
  Force two-norm initial, final = 33566.5 5.79136e-09
  Force max component initial, final = 19189 5.50756e-09
  Final line search alpha, max atom move = 1 5.50756e-09
  Iterations, force evaluations = 5031080 10000001

Pair  time (%) = 33788.6 (92.5118)
Neigh time (%) = 0.509557 (0.00139515)
Comm  time (%) = 1815.64 (4.97115)
Outpt time (%) = 28.4038 (0.0777684)
Other time (%) = 890.395 (2.43786)

#dump rel all xyz 10 relaxed-*.xyz
#dump 3 all xyz 10 relaxed.xyz
#dump 3 all atom 10 dump.atom

variable tmp equal pxx
variable pxx0 equal 8.24998149660164e-11
variable tmp equal pyy
variable pyy0 equal -6.26418583653074e-09
variable tmp equal pzz
variable pzz0 equal 1.87639029611035e-09
variable tmp equal pyz
variable pyz0 equal 6.0325661965635e-09
variable tmp equal pxz
variable pxz0 equal -8.20342693131226e-11
variable tmp equal pxy
variable pxy0 equal 4.39496344860358e-09

variable tmp equal lx
variable lx0 equal 110.047013905223
variable tmp equal ly
variable ly0 equal 110.047013905227
variable tmp equal lz
variable lz0 equal 110.047013905261

# These formulas define the derivatives w.r.t. strain components
# Constants uses $, variables use v_
variable d1 equal -(v_pxx1-8.24998149660164e-11)/(v_delta/v_len0)*0.0001
variable d2 equal -(v_pyy1--6.26418583653074e-09)/(v_delta/v_len0)*0.0001
variable d3 equal -(v_pzz1-1.87639029611035e-09)/(v_delta/v_len0)*0.0001
variable d4 equal -(v_pyz1-6.0325661965635e-09)/(v_delta/v_len0)*0.0001
variable d5 equal -(v_pxz1--8.20342693131226e-11)/(v_delta/v_len0)*0.0001
variable d6 equal -(v_pxy1-4.39496344860358e-09)/(v_delta/v_len0)*0.0001

displace_atoms all random 1e-05 1e-05 1e-05 87287 units box

# Write restart
unfix 3
write_restart restart.equil

# uxx Perturbation

variable dir equal 1
include displace.mod
# NOTE: This script should not need to be
# modified. See in.elastic for more info.
#
# Find which reference length to use

variable len0 equal 110.047013905223

# Reset box and simulation parameters

clear
box tilt large
read_restart restart.equil
  triclinic box = (-55.0235 -55.0235 -55.0235) to (55.0235 55.0235 55.0235) with tilt (0 0 0)
  12288 atoms
include potential.mod
# NOTE: This script can be modified for different pair styles
# See in.elastic for more info.

# Choose potential
pair_style     rebo
pair_coeff     * * CH.airebo  C
Reading potential file CH.airebo with DATE: 2011-10-25

#pair_style     lcbop
#pair_coeff     C.lcbop
#pair_style     tersoff
#pair_coeff     BNC.tersoff

# Setup neighbor style
neighbor 1.0 nsq
neigh_modify once no every 1 delay 0 check yes

# Setup minimization style
min_style	     cg
min_modify	     dmax 0.01 line quadratic

# Setup output
thermo		500
thermo_style custom step temp pe press pxx pyy pzz pxy pxz pyz lx ly lz vol
thermo_modify norm no

# Output
dump            1 all xtc 100 traj.xtc
dump            2 all xyz 2000 relaxed.xyz
#dump            4 all atom 10 dump.atom

# Negative deformation

variable delta equal -1.0e-5*110.047013905223
variable deltaxy equal -1.0e-5*xy
variable deltaxz equal -1.0e-5*xz
variable deltayz equal -1.0e-5*yz
change_box all x delta 0 -0.00110047013905223 xy delta -0 xz delta -0 remap units box
  triclinic box = (-55.0235 -55.0235 -55.0235) to (55.0224 55.0235 55.0235) with tilt (0 0 0)
  triclinic box = (-55.0235 -55.0235 -55.0235) to (55.0224 55.0235 55.0235) with tilt (0 0 0)
  triclinic box = (-55.0235 -55.0235 -55.0235) to (55.0224 55.0235 55.0235) with tilt (0 0 0)

# Relax atoms positions

minimize 0 1e-10 10000000 10000000
  1 neighbor list requests
  update every 1 steps, delay 0 steps, check yes
Step Temp PotEng Press Pxx Pyy Pzz Pxy Pxz Pyz Lx Ly Lz Volume
5031080            0   -95118.072     2.245218    4.3006996    1.1996643    1.2352902 2.2319297e-05  0.012100167 -0.054295733    110.04591    110.04701    110.04701      1332694
Averages over the last 4 of 8 rows, steps 5033000 to 5034087:
Temp PotEng Press Pxx Pyy Pzz Pxy Pxz Pyz Lx Ly Lz Volume
0 -95118.1 0.125265 0.383824 -0.00401165 -0.00401572 7.68723e-08 8.90786e-08 2.7826e-08 110.046 110.047 110.047 1.33269e+06
Loop time of 21.3527 on 16 procs (16 MPI x 1 OpenMP) for 3007 steps with 12288 atoms

Minimization stats:
  Stopping criterion = force tolerance
  Energy initial, next-to-last, final =
  Force two-norm initial, final = 0.0881031 9.95206e-11
  Force max component initial, final = 0.00165242 3.76144e-12
  Final line search alpha, max atom move = 1 3.76144e-12
  Iterations, force evaluations = 3007 6014

Pair  time (%) = 19.9563 (93.46)
Neigh time (%) = 0 (0)
Comm  time (%) = 1.11892 (5.24018)
Outpt time (%) = 0.018359 (0.0859798)
Other time (%) = 0.259191 (1.21385)

# Obtain new stress tensor

variable tmp equal pxx
variable pxx1 equal 0.383823691314047
variable tmp equal pyy
variable pyy1 equal -0.00401162947055985
variable tmp equal pzz
variable pzz1 equal -0.00401569908199331
variable tmp equal pxy
variable pxy1 equal 2.8588632928938e-09
variable tmp equal pxz
variable pxz1 equal 3.90957189901175e-09
variable tmp equal pyz
variable pyz1 equal 8.65684391808303e-10

# Compute elastic constant from pressure tensor

variable C1neg equal 3.83823691231547
variable C2neg equal -0.0401162320637401
variable C3neg equal -0.0401570095838361
variable C4neg equal -5.1668818047552e-08
variable C5neg equal 3.99160616832487e-08
variable C6neg equal -1.53610015570978e-08

# Reset box and simulation parameters

clear
box tilt large
read_restart restart.equil
  triclinic box = (-55.0235 -55.0235 -55.0235) to (55.0235 55.0235 55.0235) with tilt (0 0 0)
  12288 atoms
include potential.mod
# NOTE: This script can be modified for different pair styles
# See in.elastic for more info.

# Choose potential
pair_style     rebo
pair_coeff     * * CH.airebo  C
Reading potential file CH.airebo with DATE: 2011-10-25

#pair_style     lcbop
#pair_coeff     C.lcbop
#pair_style     tersoff
#pair_coeff     BNC.tersoff

# Setup neighbor style
neighbor 1.0 nsq
neigh_modify once no every 1 delay 0 check yes

# Setup minimization style
min_style	     cg
min_modify	     dmax 0.01 line quadratic

# Setup output
thermo		500
thermo_style custom step temp pe press pxx pyy pzz pxy pxz pyz lx ly lz vol
thermo_modify norm no

# Output
dump            1 all xtc 100 traj.xtc
dump            2 all xyz 2000 relaxed.xyz
#dump            4 all atom 10 dump.atom

# Positive deformation

variable delta equal 1.0e-5*110.047013905223
variable deltaxy equal 1.0e-5*xy
variable deltaxz equal 1.0e-5*xz
variable deltayz equal 1.0e-5*yz
change_box all x delta 0 0.00110047013905223 xy delta 0 xz delta 0 remap units box
  triclinic box = (-55.0235 -55.0235 -55.0235) to (55.0246 55.0235 55.0235) with tilt (0 0 0)
  triclinic box = (-55.0235 -55.0235 -55.0235) to (55.0246 55.0235 55.0235) with tilt (0 0 0)
  triclinic box = (-55.0235 -55.0235 -55.0235) to (55.0246 55.0235 55.0235) with tilt (0 0 0)

# Relax atoms positions

minimize 0 1e-10 10000000 10000000
  1 neighbor list requests
  update every 1 steps, delay 0 steps, check yes
Step Temp PotEng Press Pxx Pyy Pzz Pxy Pxz Pyz Lx Ly Lz Volume
5031080            0   -95118.072   -2.2476016    -4.342909   -1.2177599   -1.1821359 2.0483795e-05  0.012098078 -0.054289124    110.04811    110.04701    110.04701    1332720.7
Averages over the last 4 of 8 rows, steps 5033000 to 5034106:
Temp PotEng Press Pxx Pyy Pzz Pxy Pxz Pyz Lx Ly Lz Volume
0 -95118.1 -0.125331 -0.383926 0.00396834 0.00396428 7.92516e-08 8.94244e-08 2.57947e-08 110.048 110.047 110.047 1.33272e+06
Loop time of 21.4148 on 16 procs (16 MPI x 1 OpenMP) for 3026 steps with 12288 atoms

Minimization stats:
  Stopping criterion = force tolerance
  Energy initial, next-to-last, final =
  Force two-norm initial, final = 0.0886361 9.97099e-11
  Force max component initial, final = 0.00193731 3.2121e-12
  Final line search alpha, max atom move = 1 3.2121e-12
  Iterations, force evaluations = 3026 6052

Pair  time (%) = 20.0484 (93.6191)
Neigh time (%) = 0 (0)
Comm  time (%) = 1.09149 (5.09688)
Outpt time (%) = 0.0185779 (0.0867527)
Other time (%) = 0.256396 (1.19728)

# Obtain new stress tensor

variable tmp equal pe
variable e1 equal -95118.0721216326
variable tmp equal press
variable p1 equal -0.125331096482537
variable tmp equal pxx
variable pxx1 equal -0.383925931226015
variable tmp equal pyy
variable pyy1 equal 0.00396835532895095
variable tmp equal pzz
variable pzz1 equal 0.00396428644945333
variable tmp equal pxy
variable pxy1 equal 3.20467318020188e-09
variable tmp equal pxz
variable pxz1 equal 3.59896504997902e-09
variable tmp equal pyz
variable pyz1 equal 6.32657402525482e-10

# Compute elastic constant from pressure tensor

variable C1pos equal 3.83925931308515
variable C2pos equal -0.0396836159313679
variable C3pos equal -0.0396428457306303
variable C4pos equal 5.39990879403802e-08
variable C5pos equal -3.68099931929214e-08
variable C6pos equal 1.1902902684017e-08

# Combine positive and negative

variable C11 equal 0.5*(3.83823691231547+3.83925931308515)
variable C21 equal 0.5*(-0.0401162320637401+-0.0396836159313679)
variable C31 equal 0.5*(-0.0401570095838361+-0.0396428457306303)
variable C41 equal 0.5*(-5.1668818047552e-08+5.39990879403802e-08)
variable C51 equal 0.5*(3.99160616832487e-08+-3.68099931929214e-08)
variable C61 equal 0.5*(-1.53610015570978e-08+1.1902902684017e-08)

# Delete dir to make sure it is not reused

variable dir delete

# uyy Perturbation

variable dir equal 2
include displace.mod
# NOTE: This script should not need to be
# modified. See in.elastic for more info.
#
# Find which reference length to use

variable len0 equal 110.047013905227

# Reset box and simulation parameters

clear
box tilt large
read_restart restart.equil
  triclinic box = (-55.0235 -55.0235 -55.0235) to (55.0235 55.0235 55.0235) with tilt (0 0 0)
  12288 atoms
include potential.mod
# NOTE: This script can be modified for different pair styles
# See in.elastic for more info.

# Choose potential
pair_style     rebo
pair_coeff     * * CH.airebo  C
Reading potential file CH.airebo with DATE: 2011-10-25

#pair_style     lcbop
#pair_coeff     C.lcbop
#pair_style     tersoff
#pair_coeff     BNC.tersoff

# Setup neighbor style
neighbor 1.0 nsq
neigh_modify once no every 1 delay 0 check yes

# Setup minimization style
min_style	     cg
min_modify	     dmax 0.01 line quadratic

# Setup output
thermo		500
thermo_style custom step temp pe press pxx pyy pzz pxy pxz pyz lx ly lz vol
thermo_modify norm no

# Output
dump            1 all xtc 100 traj.xtc
dump            2 all xyz 2000 relaxed.xyz
#dump            4 all atom 10 dump.atom

# Negative deformation

variable delta equal -1.0e-5*110.047013905227
variable deltaxy equal -1.0e-5*xy
variable deltaxz equal -1.0e-5*xz
variable deltayz equal -1.0e-5*yz
change_box all y delta 0 -0.00110047013905227 yz delta -0 remap units box
  triclinic box = (-55.0235 -55.0235 -55.0235) to (55.0235 55.0224 55.0235) with tilt (0 0 0)
  triclinic box = (-55.0235 -55.0235 -55.0235) to (55.0235 55.0224 55.0235) with tilt (0 0 0)

# Relax atoms positions

minimize 0 1e-10 10000000 10000000
  1 neighbor list requests
  update every 1 steps, delay 0 steps, check yes
Step Temp PotEng Press Pxx Pyy Pzz Pxy Pxz Pyz Lx Ly Lz Volume
5031080            0   -95118.072    2.2452184     1.187535     4.312833    1.2352873 2.1099279e-05  0.012099222 -0.054296667    110.04701    110.04591    110.04701      1332694
Averages over the last 4 of 8 rows, steps 5033000 to 5034107:
Temp PotEng Press Pxx Pyy Pzz Pxy Pxz Pyz Lx Ly Lz Volume
0 -95118.1 0.125265 -0.0040157 0.383824 -0.00401167 7.71538e-08 8.93159e-08 2.65764e-08 110.047 110.046 110.047 1.33269e+06
Loop time of 21.4153 on 16 procs (16 MPI x 1 OpenMP) for 3027 steps with 12288 atoms

Minimization stats:
  Stopping criterion = force tolerance
  Energy initial, next-to-last, final =
  Force two-norm initial, final = 0.0882716 9.94492e-11
  Force max component initial, final = 0.00185162 3.18007e-12
  Final line search alpha, max atom move = 1 3.18007e-12
  Iterations, force evaluations = 3027 6054

Pair  time (%) = 20.084 (93.7836)
Neigh time (%) = 0 (0)
Comm  time (%) = 1.05715 (4.93641)
Outpt time (%) = 0.0186087 (0.0868944)
Other time (%) = 0.255513 (1.19313)

# Obtain new stress tensor

variable tmp equal pxx
variable pxx1 equal -0.00401568394972473
variable tmp equal pyy
variable pyy1 equal 0.383823692254988
variable tmp equal pzz
variable pzz1 equal -0.00401163978148693
variable tmp equal pxy
variable pxy1 equal 3.13840489756737e-09
variable tmp equal pxz
variable pxz1 equal 3.27904593729256e-09
variable tmp equal pyz
variable pyz1 equal 3.62779010042301e-10

# Compute elastic constant from pressure tensor

variable C1neg equal -0.0401568403222455
variable C2neg equal 3.83823698519174
variable C3neg equal -0.0401164165787723
variable C4neg equal -5.6697871865212e-08
variable C5neg equal 3.36108020660568e-08
variable C6neg equal -1.25655855103621e-08

# Reset box and simulation parameters

clear
box tilt large
read_restart restart.equil
  triclinic box = (-55.0235 -55.0235 -55.0235) to (55.0235 55.0235 55.0235) with tilt (0 0 0)
  12288 atoms
include potential.mod
# NOTE: This script can be modified for different pair styles
# See in.elastic for more info.

# Choose potential
pair_style     rebo
pair_coeff     * * CH.airebo  C
Reading potential file CH.airebo with DATE: 2011-10-25

#pair_style     lcbop
#pair_coeff     C.lcbop
#pair_style     tersoff
#pair_coeff     BNC.tersoff

# Setup neighbor style
neighbor 1.0 nsq
neigh_modify once no every 1 delay 0 check yes

# Setup minimization style
min_style	     cg
min_modify	     dmax 0.01 line quadratic

# Setup output
thermo		500
thermo_style custom step temp pe press pxx pyy pzz pxy pxz pyz lx ly lz vol
thermo_modify norm no

# Output
dump            1 all xtc 100 traj.xtc
dump            2 all xyz 2000 relaxed.xyz
#dump            4 all atom 10 dump.atom

# Positive deformation

variable delta equal 1.0e-5*110.047013905227
variable deltaxy equal 1.0e-5*xy
variable deltaxz equal 1.0e-5*xz
variable deltayz equal 1.0e-5*yz
change_box all y delta 0 0.00110047013905227 yz delta 0 remap units box
  triclinic box = (-55.0235 -55.0235 -55.0235) to (55.0235 55.0246 55.0235) with tilt (0 0 0)
  triclinic box = (-55.0235 -55.0235 -55.0235) to (55.0235 55.0246 55.0235) with tilt (0 0 0)

# Relax atoms positions

minimize 0 1e-10 10000000 10000000
  1 neighbor list requests
  update every 1 steps, delay 0 steps, check yes
Step Temp PotEng Press Pxx Pyy Pzz Pxy Pxz Pyz Lx Ly Lz Volume
5031080            0   -95118.072    -2.247602   -1.2298889   -4.3307808   -1.1821363 2.1704826e-05   0.01209902 -0.054288194    110.04701    110.04811    110.04701    1332720.7
Averages over the last 4 of 8 rows, steps 5033000 to 5034098:
Temp PotEng Press Pxx Pyy Pzz Pxy Pxz Pyz Lx Ly Lz Volume
0 -95118.1 -0.125331 0.00396429 -0.383926 0.00396833 7.86815e-08 8.95297e-08 2.6183e-08 110.047 110.048 110.047 1.33272e+06
Loop time of 21.3725 on 16 procs (16 MPI x 1 OpenMP) for 3018 steps with 12288 atoms

Minimization stats:
  Stopping criterion = force tolerance
  Energy initial, next-to-last, final =
  Force two-norm initial, final = 0.0884683 9.97387e-11
  Force max component initial, final = 0.00175811 3.36776e-12
  Final line search alpha, max atom move = 1 3.36776e-12
  Iterations, force evaluations = 3018 6036

Pair  time (%) = 19.9994 (93.5755)
Neigh time (%) = 0 (0)
Comm  time (%) = 1.09571 (5.12675)
Outpt time (%) = 0.0183557 (0.0858848)
Other time (%) = 0.259007 (1.21187)

# Obtain new stress tensor

variable tmp equal pe
variable e1 equal -95118.0721216326
variable tmp equal press
variable p1 equal -0.125331097923844
variable tmp equal pxx
variable pxx1 equal 0.00396429836005495
variable tmp equal pyy
variable pyy1 equal -0.383925933919362
variable tmp equal pzz
variable pzz1 equal 0.00396834178777491
variable tmp equal pxy
variable pxy1 equal 3.07264105519533e-09
variable tmp equal pxz
variable pxz1 equal 3.64728735131417e-09
variable tmp equal pyz
variable pyz1 equal 7.1473356168737e-10

# Compute elastic constant from pressure tensor

variable C1pos equal -0.0396429827755514
variable C2pos equal 3.83925927655176
variable C3pos equal -0.0396833991138461
variable C4pos equal 5.31783263487613e-08
variable C5pos equal -3.72932162062729e-08
variable C6pos equal 1.32232239340825e-08

# Combine positive and negative

variable C12 equal 0.5*(-0.0401568403222455+-0.0396429827755514)
variable C22 equal 0.5*(3.83823698519174+3.83925927655176)
variable C32 equal 0.5*(-0.0401164165787723+-0.0396833991138461)
variable C42 equal 0.5*(-5.6697871865212e-08+5.31783263487613e-08)
variable C52 equal 0.5*(3.36108020660568e-08+-3.72932162062729e-08)
variable C62 equal 0.5*(-1.25655855103621e-08+1.32232239340825e-08)

# Delete dir to make sure it is not reused

variable dir delete

# uzz Perturbation

variable dir equal 3
include displace.mod
# NOTE: This script should not need to be
# modified. See in.elastic for more info.
#
# Find which reference length to use

variable len0 equal 110.047013905261

# Reset box and simulation parameters

clear
box tilt large
read_restart restart.equil
  triclinic box = (-55.0235 -55.0235 -55.0235) to (55.0235 55.0235 55.0235) with tilt (0 0 0)
  12288 atoms
include potential.mod
# NOTE: This script can be modified for different pair styles
# See in.elastic for more info.

# Choose potential
pair_style     rebo
pair_coeff     * * CH.airebo  C
Reading potential file CH.airebo with DATE: 2011-10-25

#pair_style     lcbop
#pair_coeff     C.lcbop
#pair_style     tersoff
#pair_coeff     BNC.tersoff

# Setup neighbor style
neighbor 1.0 nsq
neigh_modify once no every 1 delay 0 check yes

# Setup minimization style
min_style	     cg
min_modify	     dmax 0.01 line quadratic

# Setup output
thermo		500
thermo_style custom step temp pe press pxx pyy pzz pxy pxz pyz lx ly lz vol
thermo_modify norm no

# Output
dump            1 all xtc 100 traj.xtc
dump            2 all xyz 2000 relaxed.xyz
#dump            4 all atom 10 dump.atom

# Negative deformation

variable delta equal -1.0e-5*110.047013905261
variable deltaxy equal -1.0e-5*xy
variable deltaxz equal -1.0e-5*xz
variable deltayz equal -1.0e-5*yz
change_box all z delta 0 -0.00110047013905261 remap units box
  triclinic box = (-55.0235 -55.0235 -55.0235) to (55.0235 55.0235 55.0224) with tilt (0 0 0)

# Relax atoms positions

minimize 0 1e-10 10000000 10000000
  1 neighbor list requests
  update every 1 steps, delay 0 steps, check yes
Step Temp PotEng Press Pxx Pyy Pzz Pxy Pxz Pyz Lx Ly Lz Volume
5031080            0   -95118.072      2.24522     1.187534    1.1996653    4.3484606 2.0598179e-05  0.012099543 -0.054292691    110.04701    110.04701    110.04591      1332694
Averages over the last 4 of 8 rows, steps 5033000 to 5034096:
Temp PotEng Press Pxx Pyy Pzz Pxy Pxz Pyz Lx Ly Lz Volume
0 -95118.1 0.125265 -0.00401165 -0.0040157 0.383824 7.78646e-08 8.92585e-08 2.59681e-08 110.047 110.047 110.046 1.33269e+06
Loop time of 21.3392 on 16 procs (16 MPI x 1 OpenMP) for 3016 steps with 12288 atoms

Minimization stats:
  Stopping criterion = force tolerance
  Energy initial, next-to-last, final =
  Force two-norm initial, final = 0.0887494 9.9353e-11
  Force max component initial, final = 0.00176395 4.1535e-12
  Final line search alpha, max atom move = 1 4.1535e-12
  Iterations, force evaluations = 3016 6032

Pair  time (%) = 20.0164 (93.8012)
Neigh time (%) = 0 (0)
Comm  time (%) = 1.02099 (4.7846)
Outpt time (%) = 0.0183168 (0.0858367)
Other time (%) = 0.283466 (1.32838)

# Obtain new stress tensor

variable tmp equal pxx
variable pxx1 equal -0.00401162793146762
variable tmp equal pyy
variable pyy1 equal -0.0040156866492844
variable tmp equal pzz
variable pzz1 equal 0.383823678938015
variable tmp equal pxy
variable pxy1 equal 2.98064527402517e-09
variable tmp equal pxz
variable pxz1 equal 3.68621452857494e-09
variable tmp equal pyz
variable pyz1 equal 7.72706734345085e-10

# Compute elastic constant from pressure tensor

variable C1neg equal -0.0401162801396744
variable C2neg equal -0.0401568038509856
variable C3neg equal 3.83823677061625
variable C4neg equal -5.25985946221841e-08
variable C5neg equal 3.76824879788806e-08
variable C6neg equal -1.41431817457841e-08

# Reset box and simulation parameters

clear
box tilt large
read_restart restart.equil
  triclinic box = (-55.0235 -55.0235 -55.0235) to (55.0235 55.0235 55.0235) with tilt (0 0 0)
  12288 atoms
include potential.mod
# NOTE: This script can be modified for different pair styles
# See in.elastic for more info.

# Choose potential
pair_style     rebo
pair_coeff     * * CH.airebo  C
Reading potential file CH.airebo with DATE: 2011-10-25

#pair_style     lcbop
#pair_coeff     C.lcbop
#pair_style     tersoff
#pair_coeff     BNC.tersoff

# Setup neighbor style
neighbor 1.0 nsq
neigh_modify once no every 1 delay 0 check yes

# Setup minimization style
min_style	     cg
min_modify	     dmax 0.01 line quadratic

# Setup output
thermo		500
thermo_style custom step temp pe press pxx pyy pzz pxy pxz pyz lx ly lz vol
thermo_modify norm no

# Output
dump            1 all xtc 100 traj.xtc
dump            2 all xyz 2000 relaxed.xyz
#dump            4 all atom 10 dump.atom

# Positive deformation

variable delta equal 1.0e-5*110.047013905261
variable deltaxy equal 1.0e-5*xy
variable deltaxz equal 1.0e-5*xz
variable deltayz equal 1.0e-5*yz
change_box all z delta 0 0.00110047013905261 remap units box
  triclinic box = (-55.0235 -55.0235 -55.0235) to (55.0235 55.0235 55.0246) with tilt (0 0 0)

# Relax atoms positions

minimize 0 1e-10 10000000 10000000
  1 neighbor list requests
  update every 1 steps, delay 0 steps, check yes
Step Temp PotEng Press Pxx Pyy Pzz Pxy Pxz Pyz Lx Ly Lz Volume
5031080            0   -95118.072   -2.2476035   -1.2298912   -1.2177576   -4.2951618 2.2207162e-05  0.012098701 -0.054292167    110.04701    110.04701    110.04811    1332720.7
Averages over the last 4 of 8 rows, steps 5033000 to 5034104:
Temp PotEng Press Pxx Pyy Pzz Pxy Pxz Pyz Lx Ly Lz Volume
0 -95118.1 -0.125331 0.00396834 0.00396429 -0.383926 7.75091e-08 8.85637e-08 2.68409e-08 110.047 110.047 110.048 1.33272e+06
Loop time of 21.4073 on 16 procs (16 MPI x 1 OpenMP) for 3024 steps with 12288 atoms

Minimization stats:
  Stopping criterion = force tolerance
  Energy initial, next-to-last, final =
  Force two-norm initial, final = 0.087989 9.94388e-11
  Force max component initial, final = 0.00177839 3.55019e-12
  Final line search alpha, max atom move = 1 3.55019e-12
  Iterations, force evaluations = 3024 6048

Pair  time (%) = 20.0566 (93.6903)
Neigh time (%) = 0 (0)
Comm  time (%) = 1.04609 (4.88658)
Outpt time (%) = 0.0185929 (0.0868529)
Other time (%) = 0.286051 (1.33623)

# Obtain new stress tensor

variable tmp equal pe
variable e1 equal -95118.0721216326
variable tmp equal press
variable p1 equal -0.125331096290958
variable tmp equal pxx
variable pxx1 equal 0.00396835687532439
variable tmp equal pyy
variable pyy1 equal 0.00396429894851586
variable tmp equal pzz
variable pzz1 equal -0.383925944696713
variable tmp equal pxy
variable pxy1 equal 3.17572635350054e-09
variable tmp equal pxz
variable pxz1 equal 3.44307288109684e-09
variable tmp equal pyz
variable pyz1 equal 4.60765998995828e-10

# Compute elastic constant from pressure tensor

variable C1pos equal -0.0396835679282457
variable C2pos equal -0.039643052127017
variable C3pos equal 3.83925946573103
variable C4pos equal 5.57180019756767e-08
variable C5pos equal -3.52510715040996e-08
variable C6pos equal 1.21923709510304e-08

# Combine positive and negative

variable C13 equal 0.5*(-0.0401162801396744+-0.0396835679282457)
variable C23 equal 0.5*(-0.0401568038509856+-0.039643052127017)
variable C33 equal 0.5*(3.83823677061625+3.83925946573103)
variable C43 equal 0.5*(-5.25985946221841e-08+5.57180019756767e-08)
variable C53 equal 0.5*(3.76824879788806e-08+-3.52510715040996e-08)
variable C63 equal 0.5*(-1.41431817457841e-08+1.21923709510304e-08)

# Delete dir to make sure it is not reused

variable dir delete

# uyz Perturbation

variable dir equal 4
include displace.mod
# NOTE: This script should not need to be
# modified. See in.elastic for more info.
#
# Find which reference length to use

variable len0 equal 110.047013905261

# Reset box and simulation parameters

clear
box tilt large
read_restart restart.equil
  triclinic box = (-55.0235 -55.0235 -55.0235) to (55.0235 55.0235 55.0235) with tilt (0 0 0)
  12288 atoms
include potential.mod
# NOTE: This script can be modified for different pair styles
# See in.elastic for more info.

# Choose potential
pair_style     rebo
pair_coeff     * * CH.airebo  C
Reading potential file CH.airebo with DATE: 2011-10-25

#pair_style     lcbop
#pair_coeff     C.lcbop
#pair_style     tersoff
#pair_coeff     BNC.tersoff

# Setup neighbor style
neighbor 1.0 nsq
neigh_modify once no every 1 delay 0 check yes

# Setup minimization style
min_style	     cg
min_modify	     dmax 0.01 line quadratic

# Setup output
thermo		500
thermo_style custom step temp pe press pxx pyy pzz pxy pxz pyz lx ly lz vol
thermo_modify norm no

# Output
dump            1 all xtc 100 traj.xtc
dump            2 all xyz 2000 relaxed.xyz
#dump            4 all atom 10 dump.atom

# Negative deformation

variable delta equal -1.0e-5*110.047013905261
variable deltaxy equal -1.0e-5*xy
variable deltaxz equal -1.0e-5*xz
variable deltayz equal -1.0e-5*yz
change_box all yz delta -0.00110047013905261 remap units box
  triclinic box = (-55.0235 -55.0235 -55.0235) to (55.0235 55.0235 55.0235) with tilt (0 0 -0.00110047)

# Relax atoms positions

minimize 0 1e-10 10000000 10000000
  1 neighbor list requests
  update every 1 steps, delay 0 steps, check yes
Step Temp PotEng Press Pxx Pyy Pzz Pxy Pxz Pyz Lx Ly Lz Volume
5031080            0   -95118.072 -0.0012493086 -0.021222404 -0.0090913055  0.026565784 2.204788e-05   0.01209806    2.2319609    110.04701    110.04701    110.04701    1332707.3
Averages over the last 4 of 8 rows, steps 5033000 to 5034070:
Temp PotEng Press Pxx Pyy Pzz Pxy Pxz Pyz Lx Ly Lz Volume
0 -95118.1 -8.59803e-05 -5.54881e-05 -0.000101587 -0.000100866 -3.48749e-10 2.23885e-09 0.699649 110.047 110.047 110.047 1.33271e+06
Loop time of 21.0356 on 16 procs (16 MPI x 1 OpenMP) for 2990 steps with 12288 atoms

Minimization stats:
  Stopping criterion = force tolerance
  Energy initial, next-to-last, final =
  Force two-norm initial, final = 0.0872331 9.98132e-11
  Force max component initial, final = 0.00162653 2.95208e-12
  Final line search alpha, max atom move = 1 2.95208e-12
  Iterations, force evaluations = 2990 5980

Pair  time (%) = 19.8295 (94.2665)
Neigh time (%) = 0 (0)
Comm  time (%) = 0.948176 (4.50749)
Outpt time (%) = 0.0182894 (0.0869451)
Other time (%) = 0.239618 (1.13911)

# Obtain new stress tensor

variable tmp equal pxx
variable pxx1 equal -5.44166217477171e-05
variable tmp equal pyy
variable pyy1 equal -0.000100491060665193
variable tmp equal pzz
variable pzz1 equal -9.97754241011175e-05
variable tmp equal pxy
variable pxy1 equal 1.65290062082462e-12
variable tmp equal pxz
variable pxz1 equal -5.49856397738919e-11
variable tmp equal pyz
variable pyz1 equal 0.699649395982103

# Compute elastic constant from pressure tensor

variable C1neg equal -0.000544167042475321
variable C2neg equal -0.00100484796479356
variable C3neg equal -0.000997773004914136
variable C4neg equal 6.99649389949537
variable C5neg equal 2.70486295392307e-10
variable C6neg equal -4.39331054798276e-08

# Reset box and simulation parameters

clear
box tilt large
read_restart restart.equil
  triclinic box = (-55.0235 -55.0235 -55.0235) to (55.0235 55.0235 55.0235) with tilt (0 0 0)
  12288 atoms
include potential.mod
# NOTE: This script can be modified for different pair styles
# See in.elastic for more info.

# Choose potential
pair_style     rebo
pair_coeff     * * CH.airebo  C
Reading potential file CH.airebo with DATE: 2011-10-25

#pair_style     lcbop
#pair_coeff     C.lcbop
#pair_style     tersoff
#pair_coeff     BNC.tersoff

# Setup neighbor style
neighbor 1.0 nsq
neigh_modify once no every 1 delay 0 check yes

# Setup minimization style
min_style	     cg
min_modify	     dmax 0.01 line quadratic

# Setup output
thermo		500
thermo_style custom step temp pe press pxx pyy pzz pxy pxz pyz lx ly lz vol
thermo_modify norm no

# Output
dump            1 all xtc 100 traj.xtc
dump            2 all xyz 2000 relaxed.xyz
#dump            4 all atom 10 dump.atom

# Positive deformation

variable delta equal 1.0e-5*110.047013905261
variable deltaxy equal 1.0e-5*xy
variable deltaxz equal 1.0e-5*xz
variable deltayz equal 1.0e-5*yz
change_box all yz delta 0.00110047013905261 remap units box
  triclinic box = (-55.0235 -55.0235 -55.0235) to (55.0235 55.0235 55.0235) with tilt (0 0 0.00110047)

# Relax atoms positions

minimize 0 1e-10 10000000 10000000
  1 neighbor list requests
  update every 1 steps, delay 0 steps, check yes
Step Temp PotEng Press Pxx Pyy Pzz Pxy Pxz Pyz Lx Ly Lz Volume
5031080            0   -95118.072 -0.0012451927 -0.021216881 -0.0090850047  0.026566308 2.0755324e-05  0.012100185   -2.3405457    110.04701    110.04701    110.04701    1332707.3
Averages over the last 4 of 8 rows, steps 5033000 to 5034070:
Temp PotEng Press Pxx Pyy Pzz Pxy Pxz Pyz Lx Ly Lz Volume
0 -95118.1 -8.59846e-05 -5.54925e-05 -0.000101589 -0.000100872 -5.26236e-10 1.77853e-09 -0.699649 110.047 110.047 110.047 1.33271e+06
Loop time of 21.072 on 16 procs (16 MPI x 1 OpenMP) for 2990 steps with 12288 atoms

Minimization stats:
  Stopping criterion = force tolerance
  Energy initial, next-to-last, final =
  Force two-norm initial, final = 0.0885932 9.87348e-11
  Force max component initial, final = 0.00187612 2.73653e-12
  Final line search alpha, max atom move = 1 2.73653e-12
  Iterations, force evaluations = 2990 5980

Pair  time (%) = 19.8313 (94.112)
Neigh time (%) = 0 (0)
Comm  time (%) = 0.971668 (4.61117)
Outpt time (%) = 0.0182417 (0.0865682)
Other time (%) = 0.250806 (1.19023)

# Obtain new stress tensor

variable tmp equal pe
variable e1 equal -95118.0721203194
variable tmp equal press
variable p1 equal -8.48941139781024e-05
variable tmp equal pxx
variable pxx1 equal -5.44164286445056e-05
variable tmp equal pyy
variable pyy1 equal -0.000100490877060821
variable tmp equal pzz
variable pzz1 equal -9.97750362289807e-05
variable tmp equal pxy
variable pxy1 equal 2.08150159575938e-11
variable tmp equal pxz
variable pxz1 equal 2.41912897063324e-11
variable tmp equal pyz
variable pyz1 equal -0.699649395350976

# Compute elastic constant from pressure tensor

variable C1pos equal 0.000544165111443206
variable C2pos equal 0.00100484612874984
variable C3pos equal 0.000997769126192768
variable C4pos equal 6.99649401383542
variable C5pos equal -1.06225559019455e-09
variable C6pos equal 4.37414843264599e-08

# Combine positive and negative

variable C14 equal 0.5*(-0.000544167042475321+0.000544165111443206)
variable C24 equal 0.5*(-0.00100484796479356+0.00100484612874984)
variable C34 equal 0.5*(-0.000997773004914136+0.000997769126192768)
variable C44 equal 0.5*(6.99649389949537+6.99649401383542)
variable C54 equal 0.5*(2.70486295392307e-10+-1.06225559019455e-09)
variable C64 equal 0.5*(-4.39331054798276e-08+4.37414843264599e-08)

# Delete dir to make sure it is not reused

variable dir delete

# uxz Perturbation

variable dir equal 5
include displace.mod
# NOTE: This script should not need to be
# modified. See in.elastic for more info.
#
# Find which reference length to use

variable len0 equal 110.047013905261

# Reset box and simulation parameters

clear
box tilt large
read_restart restart.equil
  triclinic box = (-55.0235 -55.0235 -55.0235) to (55.0235 55.0235 55.0235) with tilt (0 0 0)
  12288 atoms
include potential.mod
# NOTE: This script can be modified for different pair styles
# See in.elastic for more info.

# Choose potential
pair_style     rebo
pair_coeff     * * CH.airebo  C
Reading potential file CH.airebo with DATE: 2011-10-25

#pair_style     lcbop
#pair_coeff     C.lcbop
#pair_style     tersoff
#pair_coeff     BNC.tersoff

# Setup neighbor style
neighbor 1.0 nsq
neigh_modify once no every 1 delay 0 check yes

# Setup minimization style
min_style	     cg
min_modify	     dmax 0.01 line quadratic

# Setup output
thermo		500
thermo_style custom step temp pe press pxx pyy pzz pxy pxz pyz lx ly lz vol
thermo_modify norm no

# Output
dump            1 all xtc 100 traj.xtc
dump            2 all xyz 2000 relaxed.xyz
#dump            4 all atom 10 dump.atom

# Negative deformation

variable delta equal -1.0e-5*110.047013905261
variable deltaxy equal -1.0e-5*xy
variable deltaxz equal -1.0e-5*xz
variable deltayz equal -1.0e-5*yz
change_box all xz delta -0.00110047013905261 remap units box
  triclinic box = (-55.0235 -55.0235 -55.0235) to (55.0235 55.0235 55.0235) with tilt (0 -0.00110047 0)

# Relax atoms positions

minimize 0 1e-10 10000000 10000000
  1 neighbor list requests
  update every 1 steps, delay 0 steps, check yes
Step Temp PotEng Press Pxx Pyy Pzz Pxy Pxz Pyz Lx Ly Lz Volume
5031080            0   -95118.072 -0.0012468496 -0.021217398 -0.0090888827  0.026565732 1.8876903e-05    2.2983535 -0.054293493    110.04701    110.04701    110.04701    1332707.3
Averages over the last 4 of 8 rows, steps 5033000 to 5034071:
Temp PotEng Press Pxx Pyy Pzz Pxy Pxz Pyz Lx Ly Lz Volume
0 -95118.1 -8.5982e-05 -0.000112881 -5.55347e-05 -8.95307e-05 -2.19121e-10 0.699649 -3.08439e-10 110.047 110.047 110.047 1.33271e+06
Loop time of 21.0437 on 16 procs (16 MPI x 1 OpenMP) for 2991 steps with 12288 atoms

Minimization stats:
  Stopping criterion = force tolerance
  Energy initial, next-to-last, final =
  Force two-norm initial, final = 0.0880878 9.97866e-11
  Force max component initial, final = 0.00174825 2.89492e-12
  Final line search alpha, max atom move = 1 2.89492e-12
  Iterations, force evaluations = 2991 5982

Pair  time (%) = 19.8492 (94.3236)
Neigh time (%) = 0 (0)
Comm  time (%) = 0.913211 (4.33959)
Outpt time (%) = 0.0183579 (0.087237)
Other time (%) = 0.262952 (1.24955)

# Obtain new stress tensor

variable tmp equal pxx
variable pxx1 equal -0.000111810632663295
variable tmp equal pyy
variable pyy1 equal -5.44238562929946e-05
variable tmp equal pzz
variable pzz1 equal -8.84494337980767e-05
variable tmp equal pxy
variable pxy1 equal -1.0235597772109e-11
variable tmp equal pxz
variable pxz1 equal 0.699649391441397
variable tmp equal pyz
variable pyz1 equal -2.58185639609427e-11

# Compute elastic constant from pressure tensor

variable C1neg equal -0.0011181071516311
variable C2neg equal -0.000544175921071581
variable C3neg equal -0.000884513101883728
variable C4neg equal -6.05838476052444e-08
variable C5neg equal 6.99649391523431
variable C6neg equal -4.40519904637569e-08

# Reset box and simulation parameters

clear
box tilt large
read_restart restart.equil
  triclinic box = (-55.0235 -55.0235 -55.0235) to (55.0235 55.0235 55.0235) with tilt (0 0 0)
  12288 atoms
include potential.mod
# NOTE: This script can be modified for different pair styles
# See in.elastic for more info.

# Choose potential
pair_style     rebo
pair_coeff     * * CH.airebo  C
Reading potential file CH.airebo with DATE: 2011-10-25

#pair_style     lcbop
#pair_coeff     C.lcbop
#pair_style     tersoff
#pair_coeff     BNC.tersoff

# Setup neighbor style
neighbor 1.0 nsq
neigh_modify once no every 1 delay 0 check yes

# Setup minimization style
min_style	     cg
min_modify	     dmax 0.01 line quadratic

# Setup output
thermo		500
thermo_style custom step temp pe press pxx pyy pzz pxy pxz pyz lx ly lz vol
thermo_modify norm no

# Output
dump            1 all xtc 100 traj.xtc
dump            2 all xyz 2000 relaxed.xyz
#dump            4 all atom 10 dump.atom

# Positive deformation

variable delta equal 1.0e-5*110.047013905261
variable deltaxy equal 1.0e-5*xy
variable deltaxz equal 1.0e-5*xz
variable deltayz equal 1.0e-5*yz
change_box all xz delta 0.00110047013905261 remap units box
  triclinic box = (-55.0235 -55.0235 -55.0235) to (55.0235 55.0235 55.0235) with tilt (0 0.00110047 0)

# Relax atoms positions

minimize 0 1e-10 10000000 10000000
  1 neighbor list requests
  update every 1 steps, delay 0 steps, check yes
Step Temp PotEng Press Pxx Pyy Pzz Pxy Pxz Pyz Lx Ly Lz Volume
5031080            0   -95118.072 -0.0012476517 -0.021219002 -0.0090888428   0.02656489 2.3927183e-05   -2.2741553 -0.054291367    110.04701    110.04701    110.04701    1332707.3
Averages over the last 4 of 8 rows, steps 5033000 to 5034075:
Temp PotEng Press Pxx Pyy Pzz Pxy Pxz Pyz Lx Ly Lz Volume
0 -95118.1 -8.5983e-05 -0.000112881 -5.55353e-05 -8.95323e-05 -2.03496e-09 -0.699649 -6.75333e-10 110.047 110.047 110.047 1.33271e+06
Loop time of 21.1007 on 16 procs (16 MPI x 1 OpenMP) for 2995 steps with 12288 atoms

Minimization stats:
  Stopping criterion = force tolerance
  Energy initial, next-to-last, final =
  Force two-norm initial, final = 0.0877434 9.96395e-11
  Force max component initial, final = 0.00181147 3.33924e-12
  Final line search alpha, max atom move = 1 3.33924e-12
  Iterations, force evaluations = 2995 5990

Pair  time (%) = 19.8699 (94.1672)
Neigh time (%) = 0 (0)
Comm  time (%) = 0.94735 (4.48967)
Outpt time (%) = 0.0183773 (0.0870937)
Other time (%) = 0.265022 (1.25599)

# Obtain new stress tensor

variable tmp equal pe
variable e1 equal -95118.0721203194
variable tmp equal press
variable p1 equal -8.48939709224722e-05
variable tmp equal pxx
variable pxx1 equal -0.000111809973553156
variable tmp equal pyy
variable pyy1 equal -5.44231617074226e-05
variable tmp equal pzz
variable pzz1 equal -8.84487775068379e-05
variable tmp equal pxy
variable pxy1 equal -9.65686900176864e-12
variable tmp equal pxz
variable pxz1 equal -0.699649385143234
variable tmp equal pyz
variable pyz1 equal -1.07417185048422e-11

# Compute elastic constant from pressure tensor

variable C1pos equal 0.00111810056052971
variable C2pos equal 0.000544168975215861
variable C3pos equal 0.00088450653897134
variable C4pos equal 6.04330791506834e-08
variable C5pos equal 6.996493850612
variable C6pos equal 4.40462031760535e-08

# Combine positive and negative

variable C15 equal 0.5*(-0.0011181071516311+0.00111810056052971)
variable C25 equal 0.5*(-0.000544175921071581+0.000544168975215861)
variable C35 equal 0.5*(-0.000884513101883728+0.00088450653897134)
variable C45 equal 0.5*(-6.05838476052444e-08+6.04330791506834e-08)
variable C55 equal 0.5*(6.99649391523431+6.996493850612)
variable C65 equal 0.5*(-4.40519904637569e-08+4.40462031760535e-08)

# Delete dir to make sure it is not reused

variable dir delete

# uxy Perturbation

variable dir equal 6
include displace.mod
# NOTE: This script should not need to be
# modified. See in.elastic for more info.
#
# Find which reference length to use

variable len0 equal 110.047013905227

# Reset box and simulation parameters

clear
box tilt large
read_restart restart.equil
  triclinic box = (-55.0235 -55.0235 -55.0235) to (55.0235 55.0235 55.0235) with tilt (0 0 0)
  12288 atoms
include potential.mod
# NOTE: This script can be modified for different pair styles
# See in.elastic for more info.

# Choose potential
pair_style     rebo
pair_coeff     * * CH.airebo  C
Reading potential file CH.airebo with DATE: 2011-10-25

#pair_style     lcbop
#pair_coeff     C.lcbop
#pair_style     tersoff
#pair_coeff     BNC.tersoff

# Setup neighbor style
neighbor 1.0 nsq
neigh_modify once no every 1 delay 0 check yes

# Setup minimization style
min_style	     cg
min_modify	     dmax 0.01 line quadratic

# Setup output
thermo		500
thermo_style custom step temp pe press pxx pyy pzz pxy pxz pyz lx ly lz vol
thermo_modify norm no

# Output
dump            1 all xtc 100 traj.xtc
dump            2 all xyz 2000 relaxed.xyz
#dump            4 all atom 10 dump.atom

# Negative deformation

variable delta equal -1.0e-5*110.047013905227
variable deltaxy equal -1.0e-5*xy
variable deltaxz equal -1.0e-5*xz
variable deltayz equal -1.0e-5*yz
change_box all xy delta -0.00110047013905227 remap units box
  triclinic box = (-55.0235 -55.0235 -55.0235) to (55.0235 55.0235 55.0235) with tilt (-0.00110047 0 0)

# Relax atoms positions

minimize 0 1e-10 10000000 10000000
  1 neighbor list requests
  update every 1 steps, delay 0 steps, check yes
Step Temp PotEng Press Pxx Pyy Pzz Pxy Pxz Pyz Lx Ly Lz Volume
5031080            0   -95118.072 -0.001247314 -0.021218018 -0.0090575635   0.02653364    2.2862757  0.012096597 -0.054291662    110.04701    110.04701    110.04701    1332707.3
Averages over the last 4 of 8 rows, steps 5033000 to 5034069:
Temp PotEng Press Pxx Pyy Pzz Pxy Pxz Pyz Lx Ly Lz Volume
0 -95118.1 -8.59817e-05 -0.000101546 -0.00010087 -5.55293e-05 0.699649 1.02576e-09 7.08394e-10 110.047 110.047 110.047 1.33271e+06
Loop time of 21.0307 on 16 procs (16 MPI x 1 OpenMP) for 2989 steps with 12288 atoms

Minimization stats:
  Stopping criterion = force tolerance
  Energy initial, next-to-last, final =
  Force two-norm initial, final = 0.0879199 9.99383e-11
  Force max component initial, final = 0.00197535 2.84905e-12
  Final line search alpha, max atom move = 1 2.84905e-12
  Iterations, force evaluations = 2989 5978

Pair  time (%) = 19.8371 (94.3244)
Neigh time (%) = 0 (0)
Comm  time (%) = 0.922217 (4.3851)
Outpt time (%) = 0.018361 (0.0873057)
Other time (%) = 0.253046 (1.20322)

# Obtain new stress tensor

variable tmp equal pxx
variable pxx1 equal -0.000100488919667717
variable tmp equal pyy
variable pyy1 equal -9.97616609913254e-05
variable tmp equal pzz
variable pzz1 equal -5.44337635401364e-05
variable tmp equal pxy
variable pxy1 equal 0.699649392671782
variable tmp equal pxz
variable pxz1 equal -5.00653774607395e-11
variable tmp equal pyz
variable pyz1 equal -6.91570202904192e-11

# Compute elastic constant from pressure tensor

variable C1neg equal -0.00100489002167532
variable C2neg equal -0.000997553968054889
variable C3neg equal -0.000544356399304325
variable C4neg equal -6.10172321685392e-08
variable C5neg equal 3.19688918523831e-10
variable C6neg equal 6.99649388276819

# Reset box and simulation parameters

clear
box tilt large
read_restart restart.equil
  triclinic box = (-55.0235 -55.0235 -55.0235) to (55.0235 55.0235 55.0235) with tilt (0 0 0)
  12288 atoms
include potential.mod
# NOTE: This script can be modified for different pair styles
# See in.elastic for more info.

# Choose potential
pair_style     rebo
pair_coeff     * * CH.airebo  C
Reading potential file CH.airebo with DATE: 2011-10-25

#pair_style     lcbop
#pair_coeff     C.lcbop
#pair_style     tersoff
#pair_coeff     BNC.tersoff

# Setup neighbor style
neighbor 1.0 nsq
neigh_modify once no every 1 delay 0 check yes

# Setup minimization style
min_style	     cg
min_modify	     dmax 0.01 line quadratic

# Setup output
thermo		500
thermo_style custom step temp pe press pxx pyy pzz pxy pxz pyz lx ly lz vol
thermo_modify norm no

# Output
dump            1 all xtc 100 traj.xtc
dump            2 all xyz 2000 relaxed.xyz
#dump            4 all atom 10 dump.atom

# Positive deformation

variable delta equal 1.0e-5*110.047013905227
variable deltaxy equal 1.0e-5*xy
variable deltaxz equal 1.0e-5*xz
variable deltayz equal 1.0e-5*yz
change_box all xy delta 0.00110047013905227 remap units box
  triclinic box = (-55.0235 -55.0235 -55.0235) to (55.0235 55.0235 55.0235) with tilt (0.00110047 0 0)

# Relax atoms positions

minimize 0 1e-10 10000000 10000000
  1 neighbor list requests
  update every 1 steps, delay 0 steps, check yes
Step Temp PotEng Press Pxx Pyy Pzz Pxy Pxz Pyz Lx Ly Lz Volume
5031080            0   -95118.072 -0.0012471873 -0.021219853 -0.0090569582  0.026535249   -2.2862329  0.012101648 -0.054293196    110.04701    110.04701    110.04701    1332707.3
Averages over the last 4 of 8 rows, steps 5033000 to 5034070:
Temp PotEng Press Pxx Pyy Pzz Pxy Pxz Pyz Lx Ly Lz Volume
0 -95118.1 -8.59808e-05 -0.000101545 -0.000100868 -5.55292e-05 -0.699649 2.58273e-09 -8.65349e-11 110.047 110.047 110.047 1.33271e+06
Loop time of 21.0413 on 16 procs (16 MPI x 1 OpenMP) for 2990 steps with 12288 atoms

Minimization stats:
  Stopping criterion = force tolerance
  Energy initial, next-to-last, final =
  Force two-norm initial, final = 0.0879116 9.83422e-11
  Force max component initial, final = 0.00170335 2.48268e-12
  Final line search alpha, max atom move = 1 2.48268e-12
  Iterations, force evaluations = 2990 5980

Pair  time (%) = 19.8502 (94.3394)
Neigh time (%) = 0 (0)
Comm  time (%) = 0.919971 (4.37222)
Outpt time (%) = 0.0182599 (0.0867812)
Other time (%) = 0.252832 (1.2016)

# Obtain new stress tensor

variable tmp equal pe
variable e1 equal -95118.0721203194
variable tmp equal press
variable p1 equal -8.48945533976749e-05
variable tmp equal pxx
variable pxx1 equal -0.000100488615388786
variable tmp equal pyy
variable pyy1 equal -9.97614686569049e-05
variable tmp equal pzz
variable pzz1 equal -5.44335761473335e-05
variable tmp equal pxy
variable pxy1 equal -0.69964939319355
variable tmp equal pxz
variable pxz1 equal 4.63153858713751e-11
variable tmp equal pyz
variable pyz1 equal 6.86914746375255e-11

# Compute elastic constant from pressure tensor

variable C1pos equal 0.00100488697888601
variable C2pos equal 0.000997552044710684
variable C3pos equal 0.000544354525376296
variable C4pos equal 5.96387472192598e-08
variable C5pos equal -1.28349655184498e-09
variable C6pos equal 6.99649397588514

# Combine positive and negative

variable C16 equal 0.5*(-0.00100489002167532+0.00100488697888601)
variable C26 equal 0.5*(-0.000997553968054889+0.000997552044710684)
variable C36 equal 0.5*(-0.000544356399304325+0.000544354525376296)
variable C46 equal 0.5*(-6.10172321685392e-08+5.96387472192598e-08)
variable C56 equal 0.5*(3.19688918523831e-10+-1.28349655184498e-09)
variable C66 equal 0.5*(6.99649388276819+6.99649397588514)

# Delete dir to make sure it is not reused

variable dir delete

# Output final values

variable C11all equal 3.83874811270031
variable C22all equal 3.83874813087175
variable C33all equal 3.83874811817364

variable C12all equal 0.5*(-0.0398999115488985+-0.039899923997554)
variable C13all equal 0.5*(-0.03989992403396+-0.0398999276572332)
variable C23all equal 0.5*(-0.0398999279890013+-0.0398999078463092)

variable C44all equal 6.99649395666539
variable C55all equal 6.99649388292315
variable C66all equal 6.99649392932666

variable C14all equal 0.5*(-9.65516057513036e-10+1.1651349464141e-09)
variable C15all equal 0.5*(-3.29555069496744e-09+1.55303424516365e-09)
variable C16all equal 0.5*(-1.52139465500571e-09+-1.7290494365404e-09)

variable C24all equal 0.5*(-9.18021860027603e-10+-1.75977275822535e-09)
variable C25all equal 0.5*(-3.47292786000673e-09+-1.84120707010805e-09)
variable C26all equal 0.5*(-9.61672102519316e-10+3.288192118602e-10)

variable C34all equal 0.5*(-1.93936068398036e-09+1.5597036767463e-09)
variable C35all equal 0.5*(-3.28145619401046e-09+1.2157082373905e-09)
variable C36all equal 0.5*(-9.36964014513174e-10+-9.7540539737685e-10)

variable C45all equal 0.5*(-7.53842272805017e-11+-3.95884647401121e-10)
variable C46all equal 0.5*(-6.89242474639701e-10+-9.58105766838486e-11)
variable C56all equal 0.5*(-4.81903816660574e-10+-2.89364385169896e-12)

# Average moduli for cubic crystals

variable C11cubic equal (3.83874811270031+3.83874813087175+3.83874811817364)/3.0
variable C12cubic equal (-0.0398999177732263+-0.0398999258455966+-0.0398999179176553)/3.0
variable C44cubic equal (6.99649395666539+6.99649388292315+6.99649392932666)/3.0

variable bulkmodulus equal (3.8387481205819+2*-0.0398999205121594)/3.0
variable shearmodulus1 equal 6.99649392297173
variable shearmodulus2 equal (3.8387481205819--0.0398999205121594)/2.0
variable poissonratio equal 1.0/(1.0+3.8387481205819/-0.0398999205121594)

# For Stillinger-Weber silicon, the analytical results
# are known to be (E. R. Cowley, 1988):
#               C11 = 151.4 GPa
#               C12 = 76.4 GPa
#               C44 = 56.4 GPa

print "========================================="
=========================================
print "Components of the Elastic Constant Tensor"
Components of the Elastic Constant Tensor
print "========================================="
=========================================

Elastic Constant C11all = 3.83874811270031 GPa
Elastic Constant C22all = 3.83874813087175 GPa
Elastic Constant C33all = 3.83874811817364 GPa

Elastic Constant C12all = -0.0398999177732263 GPa
Elastic Constant C13all = -0.0398999258455966 GPa
Elastic Constant C23all = -0.0398999179176553 GPa

Elastic Constant C44all = 6.99649395666539 GPa
Elastic Constant C55all = 6.99649388292315 GPa
Elastic Constant C66all = 6.99649392932666 GPa

Elastic Constant C14all = 9.9809444450532e-11 GPa
Elastic Constant C15all = -8.71258224901895e-10 GPa
Elastic Constant C16all = -1.62522204577306e-09 GPa

Elastic Constant C24all = -1.33889730912648e-09 GPa
Elastic Constant C25all = -2.65706746505739e-09 GPa
Elastic Constant C26all = -3.16426445329558e-10 GPa

Elastic Constant C34all = -1.8982850361703e-10 GPa
Elastic Constant C35all = -1.03287397830998e-09 GPa
Elastic Constant C36all = -9.56184705945012e-10 GPa

Elastic Constant C45all = -2.35634437340811e-10 GPa
Elastic Constant C46all = -3.92526525661775e-10 GPa
Elastic Constant C56all = -2.42398730256136e-10 GPa

print "========================================="
=========================================
print "Average properties for a cubic crystal"
Average properties for a cubic crystal
print "========================================="
=========================================

Bulk Modulus = 1.25298275985253 GPa
Shear Modulus 1 = 6.99649392297173 GPa
Shear Modulus 2 = 1.93932402054703 GPa
Poisson Ratio = -0.0105031626458322
Deformation size: 1.0e-5

print "Lattice_type	lattice_constant	bulk_modulus	poisson	     c11	     c12         c44	" file elastic_constants.out
Lattice_type	lattice_constant	bulk_modulus	poisson	     c11	     c12         c44
sc    10.0    1.25298275985253     -0.0105031626458322     3.83874811270031     -0.0398999177732263     6.99649395666539
